tests/scenario_1/case.raw
0,100.0,33,0,0,60.0
GRID OPTIMIZATION COMPETITION
INPUT DATA FILES ARE RAW ROP INL CON
1,'            ',138.0,1,1,1,1,1.0400857,-4.4039717,1.1,0.9,1.1,0.9
2,'            ',138.0,1,1,1,1,1.0269644,-13.65628,1.1,0.9,1.1,0.9
3,'            ',138.0,1,1,1,1,1.0308363,-13.686567,1.1,0.9,1.1,0.9
4,'            ',138.0,1,1,1,1,1.0432481,-13.649426,1.1,0.9,1.1,0.9
5,'            ',138.0,1,1,1,1,1.0453722,-12.860234,1.1,0.9,1.1,0.9
6,'            ',138.0,1,1,1,1,1.0453338,-13.66357,1.1,0.9,1.1,0.9
7,'            ',138.0,1,1,1,1,1.055494,-8.6156991,1.1,0.9,1.1,0.9
8,'            ',138.0,1,1,1,1,1.0523759,-8.186824,1.1,0.9,1.1,0.9
9,'            ',138.0,1,1,1,1,1.0374168,-12.51373,1.1,0.9,1.1,0.9
10,'            ',138.0,1,1,1,1,1.0487752,0.43719592,1.1,0.9,1.1,0.9
11,'            ',138.0,1,1,1,1,1.0436727,-0.41240839,1.1,0.9,1.1,0.9
12,'            ',138.0,1,1,1,1,1.0495317,0.56652762,1.1,0.9,1.1,0.9
13,'            ',138.0,1,1,1,1,1.0419727,-14.531481,1.1,0.9,1.1,0.9
14,'            ',138.0,1,1,1,1,1.0419691,-14.892797,1.1,0.9,1.1,0.9
15,'            ',138.0,1,1,1,1,1.0472806,-12.484966,1.1,0.9,1.1,0.9
16,'            ',138.0,1,1,1,1,1.0499356,-10.64509,1.1,0.9,1.1,0.9
17,'            ',138.0,1,1,1,1,1.0371488,-15.703879,1.1,0.9,1.1,0.9
18,'            ',138.0,1,1,1,1,1.0431393,-6.3487336,1.1,0.9,1.1,0.9
19,'            ',138.0,1,1,1,1,1.045314,-8.1184616,1.1,0.9,1.1,0.9
20,'            ',345.0,1,1,1,1,1.0554867,5.05325,1.1,0.9,1.1,0.9
21,'            ',138.0,1,1,1,1,1.0598304,4.5406363,1.1,0.9,1.1,0.9
22,'            ',345.0,1,1,1,1,1.0558828,5.0696531,1.1,0.9,1.1,0.9
23,'            ',138.0,1,1,1,1,1.0555533,3.9363061,1.1,0.9,1.1,0.9
24,'            ',138.0,1,1,1,1,1.0425511,-13.956321,1.1,0.9,1.1,0.9
25,'            ',345.0,1,1,1,1,1.0394185,-4.7718714,1.1,0.9,1.1,0.9
26,'            ',138.0,1,1,1,1,1.0640655,-6.2797737,1.1,0.9,1.1,0.9
27,'            ',345.0,1,1,1,1,1.0389611,-4.8153178,1.1,0.9,1.1,0.9
28,'            ',138.0,1,1,1,1,1.0507973,-7.3349694,1.1,0.9,1.1,0.9
29,'            ',138.0,1,1,1,1,1.0465775,-8.2117045,1.1,0.9,1.1,0.9
30,'            ',138.0,1,1,1,1,1.0549464,-7.1601881,1.1,0.9,1.1,0.9
31,'            ',138.0,1,1,1,1,1.0559312,4.9169249,1.1,0.9,1.1,0.9
32,'            ',138.0,1,1,1,1,1.0238791,-13.569187,1.1,0.9,1.1,0.9
33,'            ',138.0,1,1,1,1,1.0228027,-13.232247,1.1,0.9,1.1,0.9
34,'            ',138.0,1,1,1,1,1.0302841,-12.099962,1.1,0.9,1.1,0.9
35,'            ',138.0,1,1,1,1,1.0469934,-14.418969,1.1,0.9,1.1,0.9
36,'            ',138.0,1,1,1,1,1.0255236,-13.709598,1.1,0.9,1.1,0.9
37,'            ',138.0,1,1,1,1,1.0383614,-14.972389,1.1,0.9,1.1,0.9
38,'            ',138.0,1,1,1,1,1.0352162,-13.579394,1.1,0.9,1.1,0.9
39,'            ',138.0,1,1,1,1,1.0377336,-12.787019,1.1,0.9,1.1,0.9
40,'            ',138.0,1,1,1,1,1.0502972,-14.928428,1.1,0.9,1.1,0.9
41,'            ',345.0,1,1,1,1,1.0124389,-10.866714,1.1,0.9,1.1,0.9
42,'            ',138.0,1,1,1,1,1.0680832,-14.036812,1.1,0.9,1.1,0.9
43,'            ',345.0,1,1,1,1,1.0158043,-10.709296,1.1,0.9,1.1,0.9
44,'            ',138.0,1,1,1,1,1.05742,-14.720518,1.1,0.9,1.1,0.9
45,'            ',138.0,1,1,1,1,1.034935,-14.097923,1.1,0.9,1.1,0.9
46,'            ',138.0,1,1,1,1,1.0459134,-13.812565,1.1,0.9,1.1,0.9
47,'            ',138.0,1,1,1,1,1.0428095,-15.211041,1.1,0.9,1.1,0.9
48,'            ',138.0,1,1,1,1,1.0526142,-13.244348,1.1,0.9,1.1,0.9
49,'            ',138.0,1,1,1,1,1.0415263,-14.759408,1.1,0.9,1.1,0.9
50,'            ',138.0,1,1,1,1,1.0464175,-13.833011,1.1,0.9,1.1,0.9
51,'            ',138.0,1,1,1,1,1.0542472,-12.942267,1.1,0.9,1.1,0.9
52,'            ',345.0,1,1,1,1,1.0316273,-10.023695,1.1,0.9,1.1,0.9
53,'            ',138.0,1,1,1,1,1.0315709,-12.731255,1.1,0.9,1.1,0.9
54,'            ',345.0,1,1,1,1,1.0327765,-9.7289829,1.1,0.9,1.1,0.9
55,'            ',138.0,1,1,1,1,1.0447058,-14.098603,1.1,0.9,1.1,0.9
56,'            ',138.0,1,1,1,1,1.0389185,-15.292137,1.1,0.9,1.1,0.9
57,'            ',138.0,1,1,1,1,1.0407304,-11.142736,1.1,0.9,1.1,0.9
58,'            ',138.0,1,1,1,1,1.038221,-0.82449339,1.1,0.9,1.1,0.9
59,'            ',138.0,1,1,1,1,1.0458407,-0.47308347,1.1,0.9,1.1,0.9
60,'            ',138.0,1,1,1,1,1.046648,-6.2553343,1.1,0.9,1.1,0.9
61,'            ',138.0,1,1,1,1,1.0619321,-14.451499,1.1,0.9,1.1,0.9
62,'            ',138.0,1,1,1,1,1.033079,-7.01405,1.1,0.9,1.1,0.9
63,'            ',138.0,1,1,1,1,1.0552141,-9.1164202,1.1,0.9,1.1,0.9
64,'            ',138.0,1,1,1,1,1.0379954,-11.387427,1.1,0.9,1.1,0.9
65,'            ',138.0,1,1,1,1,1.0530078,-15.872524,1.1,0.9,1.1,0.9
66,'            ',138.0,1,1,1,1,1.0400705,-11.319593,1.1,0.9,1.1,0.9
67,'            ',138.0,1,1,1,1,1.0487868,4.7647372,1.1,0.9,1.1,0.9
68,'            ',138.0,1,1,1,1,1.0478215,-4.1432453,1.1,0.9,1.1,0.9
69,'            ',138.0,1,1,1,1,1.0415873,-7.5562166,1.1,0.9,1.1,0.9
70,'            ',138.0,1,1,1,1,1.067437,-11.483647,1.1,0.9,1.1,0.9
71,'            ',138.0,1,1,1,1,1.0461042,-14.813203,1.1,0.9,1.1,0.9
72,'            ',138.0,1,1,1,1,1.0447802,-14.270346,1.1,0.9,1.1,0.9
73,'            ',138.0,1,1,1,1,1.0410382,-13.482776,1.1,0.9,1.1,0.9
74,'            ',138.0,1,1,1,1,1.0464038,-11.296632,1.1,0.9,1.1,0.9
75,'            ',138.0,1,1,1,1,1.0472854,-8.4620967,1.1,0.9,1.1,0.9
76,'            ',138.0,1,1,1,1,1.0597779,0.063784874,1.1,0.9,1.1,0.9
77,'            ',138.0,1,1,1,1,1.0537402,2.9411328,1.1,0.9,1.1,0.9
78,'            ',138.0,1,1,1,1,1.0547595,3.5720047,1.1,0.9,1.1,0.9
79,'            ',138.0,1,1,1,1,1.0570592,3.5267073,1.1,0.9,1.1,0.9
80,'            ',138.0,1,1,1,1,1.0588553,-6.6891697,1.1,0.9,1.1,0.9
81,'            ',138.0,1,1,1,1,1.0493954,-7.555671,1.1,0.9,1.1,0.9
82,'            ',138.0,1,1,1,1,1.0356093,-9.3074717,1.1,0.9,1.1,0.9
83,'            ',138.0,1,1,1,1,1.0494327,-7.9476554,1.1,0.9,1.1,0.9
84,'            ',138.0,1,1,1,1,1.0486479,-8.3561266,1.1,0.9,1.1,0.9
85,'            ',138.0,1,1,1,1,1.0278602,-10.75874,1.1,0.9,1.1,0.9
86,'            ',138.0,1,1,1,1,1.0512973,-0.089809944,1.1,0.9,1.1,0.9
87,'            ',138.0,1,1,1,1,1.0515257,0.61288293,1.1,0.9,1.1,0.9
88,'            ',138.0,1,1,1,1,1.0524255,-1.2636165,1.1,0.9,1.1,0.9
89,'            ',138.0,1,1,1,1,1.0471001,-0.68717216,1.1,0.9,1.1,0.9
90,'            ',345.0,1,1,1,1,1.0552091,2.4774929,1.1,0.9,1.1,0.9
91,'            ',138.0,1,1,1,1,1.0539583,1.0936837,1.1,0.9,1.1,0.9
92,'            ',345.0,1,1,1,1,1.0548902,2.4371966,1.1,0.9,1.1,0.9
93,'            ',138.0,1,1,1,1,1.0476088,-12.335186,1.1,0.9,1.1,0.9
94,'            ',138.0,1,1,1,1,1.0484101,3.5095248,1.1,0.9,1.1,0.9
95,'            ',138.0,1,1,1,1,1.0386368,-1.8738319,1.1,0.9,1.1,0.9
96,'            ',138.0,1,1,1,1,1.0570098,-11.24783,1.1,0.9,1.1,0.9
97,'            ',345.0,1,1,1,1,1.0547793,1.6752842,1.1,0.9,1.1,0.9
98,'            ',138.0,1,1,1,1,1.0691647,0.11136599,1.1,0.9,1.1,0.9
99,'            ',345.0,1,1,1,1,1.0543362,1.6422378,1.1,0.9,1.1,0.9
100,'            ',138.0,1,1,1,1,1.0441563,-1.86973,1.1,0.9,1.1,0.9
101,'            ',138.0,1,1,1,1,1.0486904,-1.6922049,1.1,0.9,1.1,0.9
102,'            ',138.0,1,1,1,1,1.0391017,-7.9737833,1.1,0.9,1.1,0.9
103,'            ',138.0,1,1,1,1,1.0389573,-7.8719495,1.1,0.9,1.1,0.9
104,'            ',138.0,1,1,1,1,1.0387408,-11.878088,1.1,0.9,1.1,0.9
105,'            ',138.0,1,1,1,1,1.0386067,-0.74863097,1.1,0.9,1.1,0.9
106,'            ',345.0,1,1,1,1,1.0372902,5.8391296,1.1,0.9,1.1,0.9
107,'            ',138.0,1,1,1,1,1.0632025,4.0765703,1.1,0.9,1.1,0.9
108,'            ',345.0,1,1,1,1,1.038686,5.9997359,1.1,0.9,1.1,0.9
109,'            ',138.0,1,1,1,1,1.0490567,-11.599866,1.1,0.9,1.1,0.9
110,'            ',138.0,1,1,1,1,1.0319307,-7.3442845,1.1,0.9,1.1,0.9
111,'            ',138.0,1,1,1,1,1.0238338,-8.551089,1.1,0.9,1.1,0.9
112,'            ',138.0,1,1,1,1,1.0281723,-7.397643,1.1,0.9,1.1,0.9
113,'            ',138.0,1,1,1,1,1.0312324,-6.9191026,1.1,0.9,1.1,0.9
114,'            ',138.0,1,1,1,1,1.0263558,-7.9078296,1.1,0.9,1.1,0.9
115,'            ',138.0,1,1,1,1,1.0504048,2.0535714,1.1,0.9,1.1,0.9
116,'            ',138.0,1,1,1,1,1.0569172,0.76548784,1.1,0.9,1.1,0.9
117,'            ',138.0,1,1,1,1,1.0419085,-7.0967948,1.1,0.9,1.1,0.9
118,'            ',138.0,1,1,1,1,1.0543966,-15.91604,1.1,0.9,1.1,0.9
119,'            ',345.0,1,1,1,1,1.0460012,-10.898785,1.1,0.9,1.1,0.9
120,'            ',138.0,1,1,1,1,1.0760312,-13.213014,1.1,0.9,1.1,0.9
121,'            ',345.0,1,1,1,1,1.0468874,-10.820064,1.1,0.9,1.1,0.9
122,'            ',138.0,1,1,1,1,1.0585959,-14.056558,1.1,0.9,1.1,0.9
123,'            ',138.0,1,1,1,1,1.0468432,-13.523166,1.1,0.9,1.1,0.9
124,'            ',138.0,1,1,1,1,1.0515025,-13.027018,1.1,0.9,1.1,0.9
125,'            ',138.0,1,1,1,1,1.0412398,-13.984164,1.1,0.9,1.1,0.9
126,'            ',138.0,1,1,1,1,1.0522264,-2.5069323,1.1,0.9,1.1,0.9
127,'            ',138.0,1,1,1,1,1.0400677,-12.765743,1.1,0.9,1.1,0.9
128,'            ',138.0,1,1,1,1,1.0407092,-5.1089774,1.1,0.9,1.1,0.9
129,'            ',138.0,1,1,1,1,1.0389335,-4.1374333,1.1,0.9,1.1,0.9
130,'            ',138.0,1,1,1,1,1.0423599,3.3365842,1.1,0.9,1.1,0.9
131,'            ',138.0,1,1,1,1,1.0531338,1.008118,1.1,0.9,1.1,0.9
132,'            ',138.0,1,1,1,1,1.0473001,-11.384728,1.1,0.9,1.1,0.9
133,'            ',138.0,1,1,1,1,1.0440328,-10.049174,1.1,0.9,1.1,0.9
134,'            ',138.0,1,1,1,1,1.0625624,-9.0886056,1.1,0.9,1.1,0.9
135,'            ',345.0,1,1,1,1,1.04,-6.9147081,1.1,0.9,1.1,0.9
136,'            ',138.0,1,1,1,1,1.0735298,-8.1984989,1.1,0.9,1.1,0.9
137,'            ',345.0,1,1,1,1,1.0398595,-6.9338217,1.1,0.9,1.1,0.9
138,'            ',138.0,1,1,1,1,1.0523804,-14.677177,1.1,0.9,1.1,0.9
139,'            ',138.0,1,1,1,1,1.0476054,-8.7047307,1.1,0.9,1.1,0.9
140,'            ',138.0,1,1,1,1,1.0371909,-10.057684,1.1,0.9,1.1,0.9
141,'            ',138.0,1,1,1,1,1.0445573,-9.1924692,1.1,0.9,1.1,0.9
142,'            ',138.0,1,1,1,1,1.0424353,-4.8691749,1.1,0.9,1.1,0.9
143,'            ',138.0,1,1,1,1,1.045988,-0.34497425,1.1,0.9,1.1,0.9
144,'            ',138.0,1,1,1,1,1.0402187,-14.280789,1.1,0.9,1.1,0.9
145,'            ',138.0,1,1,1,1,1.0245598,-14.023914,1.1,0.9,1.1,0.9
146,'            ',138.0,1,1,1,1,1.0420716,-11.222238,1.1,0.9,1.1,0.9
147,'            ',138.0,1,1,1,1,1.0406696,-12.328834,1.1,0.9,1.1,0.9
148,'            ',138.0,1,1,1,1,1.0419341,-10.728735,1.1,0.9,1.1,0.9
149,'            ',138.0,1,1,1,1,1.0376575,-11.224299,1.1,0.9,1.1,0.9
150,'            ',138.0,1,1,1,1,1.053872,-10.238501,1.1,0.9,1.1,0.9
151,'            ',345.0,1,1,1,1,1.040664,-8.1159123,1.1,0.9,1.1,0.9
152,'            ',138.0,1,1,1,1,1.0604783,-9.5776856,1.1,0.9,1.1,0.9
153,'            ',345.0,1,1,1,1,1.0401052,-8.1820612,1.1,0.9,1.1,0.9
154,'            ',138.0,1,1,1,1,1.0495369,-10.290716,1.1,0.9,1.1,0.9
155,'            ',138.0,1,1,1,1,1.0496583,-10.577423,1.1,0.9,1.1,0.9
156,'            ',138.0,1,1,1,1,1.049329,-15.942061,1.1,0.9,1.1,0.9
157,'            ',138.0,1,1,1,1,1.0471732,-12.136107,1.1,0.9,1.1,0.9
158,'            ',138.0,1,1,1,1,1.0524584,-12.259014,1.1,0.9,1.1,0.9
159,'            ',138.0,1,1,1,1,1.0489269,-5.6156307,1.1,0.9,1.1,0.9
160,'            ',138.0,1,1,1,1,1.064719,-11.717637,1.1,0.9,1.1,0.9
161,'            ',138.0,1,1,1,1,1.030267,-11.201676,1.1,0.9,1.1,0.9
162,'            ',138.0,1,1,1,1,1.0454735,-12.386106,1.1,0.9,1.1,0.9
163,'            ',138.0,1,1,1,1,1.0382751,-8.5561399,1.1,0.9,1.1,0.9
164,'            ',138.0,1,1,1,1,1.0459799,-6.5951212,1.1,0.9,1.1,0.9
165,'            ',138.0,1,1,1,1,1.0442478,-9.1857921,1.1,0.9,1.1,0.9
166,'            ',138.0,1,1,1,1,1.0437828,-9.4169633,1.1,0.9,1.1,0.9
167,'            ',138.0,1,1,1,1,1.0388708,-10.010062,1.1,0.9,1.1,0.9
168,'            ',138.0,1,1,1,1,1.04,-12.789755,1.1,0.9,1.1,0.9
169,'            ',138.0,1,1,1,1,1.0272491,-1.0902701,1.1,0.9,1.1,0.9
170,'            ',138.0,1,1,1,1,1.0457317,4.0298854,1.1,0.9,1.1,0.9
171,'            ',138.0,1,1,1,1,1.0502934,3.894445,1.1,0.9,1.1,0.9
172,'            ',138.0,1,1,1,1,1.0344079,1.4023342,1.1,0.9,1.1,0.9
173,'            ',138.0,1,1,1,1,1.0364238,1.0255758,1.1,0.9,1.1,0.9
174,'            ',138.0,1,1,1,1,1.0461051,3.8597461,1.1,0.9,1.1,0.9
175,'            ',138.0,1,1,1,1,1.0512131,4.0473329,1.1,0.9,1.1,0.9
176,'            ',138.0,1,1,1,1,1.0495845,1.0416349,1.1,0.9,1.1,0.9
177,'            ',138.0,1,1,1,1,1.0397907,0.91034967,1.1,0.9,1.1,0.9
178,'            ',138.0,1,1,1,1,1.0382346,1.7671715,1.1,0.9,1.1,0.9
179,'            ',138.0,1,1,1,1,1.0449672,2.7208017,1.1,0.9,1.1,0.9
180,'            ',138.0,1,1,1,1,1.0475855,-10.445654,1.1,0.9,1.1,0.9
181,'            ',138.0,1,1,1,1,1.0433068,-11.460909,1.1,0.9,1.1,0.9
182,'            ',138.0,1,1,1,1,1.0532322,-4.8068605,1.1,0.9,1.1,0.9
183,'            ',138.0,1,1,1,1,1.0545079,-7.7858867,1.1,0.9,1.1,0.9
184,'            ',138.0,1,1,1,1,1.0614645,-6.7536314,1.1,0.9,1.1,0.9
185,'            ',138.0,1,1,1,1,1.0504998,-5.4167547,1.1,0.9,1.1,0.9
186,'            ',138.0,1,1,1,1,1.0603867,-7.0781524,1.1,0.9,1.1,0.9
187,'            ',138.0,1,1,1,1,1.0462821,-6.5835383,1.1,0.9,1.1,0.9
188,'            ',138.0,1,1,1,1,1.0590132,-7.1985078,1.1,0.9,1.1,0.9
189,'            ',138.0,1,1,1,1,1.0533533,-8.0022364,1.1,0.9,1.1,0.9
190,'            ',345.0,1,1,1,1,1.0400029,-3.9269865,1.1,0.9,1.1,0.9
191,'            ',138.0,1,1,1,1,1.070202,-5.7790334,1.1,0.9,1.1,0.9
192,'            ',345.0,1,1,1,1,1.0396159,-3.9712182,1.1,0.9,1.1,0.9
193,'            ',138.0,1,1,1,1,1.0518243,-8.1704945,1.1,0.9,1.1,0.9
194,'            ',138.0,1,1,1,1,1.0441376,-15.097493,1.1,0.9,1.1,0.9
195,'            ',138.0,1,1,1,1,1.0438868,-9.5576359,1.1,0.9,1.1,0.9
196,'            ',138.0,1,1,1,1,1.029632,-8.0061294,1.1,0.9,1.1,0.9
197,'            ',138.0,1,1,1,1,1.0529112,-11.395173,1.1,0.9,1.1,0.9
198,'            ',138.0,1,1,1,1,1.0396041,-10.841584,1.1,0.9,1.1,0.9
199,'            ',138.0,1,1,1,1,1.04,-12.241871,1.1,0.9,1.1,0.9
200,'            ',138.0,1,1,1,1,1.04,-12.845709,1.1,0.9,1.1,0.9
...
0 / END OF BUS DATA BEGIN LOAD DATA
1,'1',1,1,1,21.885521,4.039138,0.0,0.0,0.0,0.0,1,1,0
2,'1',1,1,1,70.065146,19.61939,0.0,0.0,0.0,0.0,1,1,0
3,'1',1,1,1,33.404337,7.6425742,0.0,0.0,0.0,0.0,1,1,0
4,'1',1,1,1,65.26385,2.8462818,0.0,0.0,0.0,0.0,1,1,0
5,'1',1,1,1,51.269546,8.7275516,0.0,0.0,0.0,0.0,1,1,0
6,'1',1,1,1,35.880319,3.1707835,0.0,0.0,0.0,0.0,1,1,0
7,'1',1,1,1,30.217643,10.437017,0.0,0.0,0.0,0.0,1,1,0
8,'1',1,1,1,45.0391,4.9223573,0.0,0.0,0.0,0.0,1,1,0
9,'1',1,1,1,13.095972,5.6246864,0.0,0.0,0.0,0.0,1,1,0
10,'1',1,1,1,29.649459,9.0422257,0.0,0.0,0.0,0.0,1,1,0
11,'1',1,1,1,11.393985,2.7740881,0.0,0.0,0.0,0.0,1,1,0
12,'1',1,1,1,30.137825,1.9840257,0.0,0.0,0.0,0.0,1,1,0
13,'1',1,1,1,36.82857,6.4511708,0.0,0.0,0.0,0.0,1,1,0
14,'1',1,1,1,86.006488,34.450824,0.0,0.0,0.0,0.0,1,1,0
15,'1',1,1,1,66.933442,8.1206482,0.0,0.0,0.0,0.0,1,1,0
16,'1',1,1,1,19.112728,6.9529641,0.0,0.0,0.0,0.0,1,1,0
17,'1',1,1,1,21.315283,8.6968786,0.0,0.0,0.0,0.0,1,1,0
18,'1',1,1,1,74.341417,19.117428,0.0,0.0,0.0,0.0,1,1,0
19,'1',1,1,1,48.646749,10.003293,0.0,0.0,0.0,0.0,1,1,0
21,'1',1,1,1,46.774605,15.237913,0.0,0.0,0.0,0.0,1,1,0
23,'1',1,1,1,25.873505,5.5375115,0.0,0.0,0.0,0.0,1,1,0
24,'1',1,1,1,35.537211,22.229789,0.0,0.0,0.0,0.0,1,1,0
27,'1',1,1,1,73.50495,23.875004,0.0,0.0,0.0,0.0,1,1,0
28,'1',1,1,1,37.066818,12.488671,0.0,0.0,0.0,0.0,1,1,0
29,'1',1,1,1,37.648795,7.9017568,0.0,0.0,0.0,0.0,1,1,0
30,'1',1,1,1,36.987124,1.9491491,0.0,0.0,0.0,0.0,1,1,0
31,'1',1,1,1,62.869569,14.017145,0.0,0.0,0.0,0.0,1,1,0
32,'1',1,1,1,48.644722,16.606747,0.0,0.0,0.0,0.0,1,1,0
33,'1',1,1,1,117.02589,66.031845,0.0,0.0,0.0,0.0,1,1,0
34,'1',1,1,1,36.25376,7.671773,0.0,0.0,0.0,0.0,1,1,0
35,'1',1,1,1,76.167681,8.0525827,0.0,0.0,0.0,0.0,1,1,0
36,'1',1,1,1,87.45104,33.191299,0.0,0.0,0.0,0.0,1,1,0
37,'1',1,1,1,113.33228,25.429206,0.0,0.0,0.0,0.0,1,1,0
38,'1',1,1,1,63.594005,13.523915,0.0,0.0,0.0,0.0,1,1,0
39,'1',1,1,1,86.319361,32.719137,0.0,0.0,0.0,0.0,1,1,0
40,'1',1,1,1,107.12782,13.136322,0.0,0.0,0.0,0.0,1,1,0
42,'1',1,1,1,77.544336,24.286165,0.0,0.0,0.0,0.0,1,1,0
44,'1',1,1,1,54.511981,3.5259043,0.0,0.0,0.0,0.0,1,1,0
45,'1',1,1,1,197.7302,12.076592,0.0,0.0,0.0,0.0,1,1,0
46,'1',1,1,1,71.72782,15.066046,0.0,0.0,0.0,0.0,1,1,0
47,'1',1,1,1,70.228825,7.3228235,0.0,0.0,0.0,0.0,1,1,0
48,'1',1,1,1,52.800508,5.182289,0.0,0.0,0.0,0.0,1,1,0
49,'1',1,1,1,75.882041,9.0203289,0.0,0.0,0.0,0.0,1,1,0
50,'1',1,1,1,59.670377,36.978153,0.0,0.0,0.0,0.0,1,1,0
51,'1',1,1,1,52.136198,11.417321,0.0,0.0,0.0,0.0,1,1,0
53,'1',1,1,1,102.42255,26.353849,0.0,0.0,0.0,0.0,1,1,0
55,'1',1,1,1,26.593977,2.8823135,0.0,0.0,0.0,0.0,1,1,0
56,'1',1,1,1,18.120435,1.8762663,0.0,0.0,0.0,0.0,1,1,0
57,'1',1,1,1,14.717791,4.5470587,0.0,0.0,0.0,0.0,1,1,0
58,'1',1,1,1,27.039299,22.106595,0.0,0.0,0.0,0.0,1,1,0
59,'1',1,1,1,29.071092,11.837639,0.0,0.0,0.0,0.0,1,1,0
60,'1',1,1,1,17.652866,7.0753626,0.0,0.0,0.0,0.0,1,1,0
61,'1',1,1,1,28.448927,6.1738133,0.0,0.0,0.0,0.0,1,1,0
62,'1',1,1,1,19.59783,2.4065014,0.0,0.0,0.0,0.0,1,1,0
63,'1',1,1,1,52.632476,12.586848,0.0,0.0,0.0,0.0,1,1,0
64,'1',1,1,1,21.533701,5.4556103,0.0,0.0,0.0,0.0,1,1,0
65,'1',1,1,1,43.50108,6.2568921,0.0,0.0,0.0,0.0,1,1,0
66,'1',1,1,1,27.830848,8.0563557,0.0,0.0,0.0,0.0,1,1,0
67,'1',1,1,1,18.500917,4.6465504,0.0,0.0,0.0,0.0,1,1,0
68,'1',1,1,1,19.641796,3.7530938,0.0,0.0,0.0,0.0,1,1,0
69,'1',1,1,1,23.966563,6.0481767,0.0,0.0,0.0,0.0,1,1,0
70,'1',1,1,1,28.43015,2.8850723,0.0,0.0,0.0,0.0,1,1,0
71,'1',1,1,1,39.222131,5.5058296,0.0,0.0,0.0,0.0,1,1,0
72,'1',1,1,1,43.353618,7.5622548,0.0,0.0,0.0,0.0,1,1,0
73,'1',1,1,1,50.613604,7.4393606,0.0,0.0,0.0,0.0,1,1,0
74,'1',1,1,1,39.937467,16.914836,0.0,0.0,0.0,0.0,1,1,0
75,'1',1,1,1,25.26391,5.2075626,0.0,0.0,0.0,0.0,1,1,0
76,'1',1,1,1,26.044978,2.6057814,0.0,0.0,0.0,0.0,1,1,0
77,'1',1,1,1,34.283553,10.968621,0.0,0.0,0.0,0.0,1,1,0
78,'1',1,1,1,44.752494,14.93897,0.0,0.0,0.0,0.0,1,1,0
79,'1',1,1,1,37.181524,7.4702522,0.0,0.0,0.0,0.0,1,1,0
80,'1',1,1,1,26.676815,12.27018,0.0,0.0,0.0,0.0,1,1,0
81,'1',1,1,1,32.672796,10.60594,0.0,0.0,0.0,0.0,1,1,0
82,'1',1,1,1,71.726937,15.503432,0.0,0.0,0.0,0.0,1,1,0
83,'1',1,1,1,56.179456,13.847163,0.0,0.0,0.0,0.0,1,1,0
84,'1',1,1,1,42.251999,8.7136829,0.0,0.0,0.0,0.0,1,1,0
85,'1',1,1,1,24.656309,9.2275375,0.0,0.0,0.0,0.0,1,1,0
86,'1',1,1,1,36.200556,6.6173502,0.0,0.0,0.0,0.0,1,1,0
87,'1',1,1,1,45.107,15.470586,0.0,0.0,0.0,0.0,1,1,0
88,'1',1,1,1,29.974024,6.3562491,0.0,0.0,0.0,0.0,1,1,0
89,'1',1,1,1,46.874398,10.960709,0.0,0.0,0.0,0.0,1,1,0
92,'1',1,1,1,73.461662,12.375397,0.0,0.0,0.0,0.0,1,1,0
93,'1',1,1,1,30.638436,4.0402178,0.0,0.0,0.0,0.0,1,1,0
94,'1',1,1,1,28.019273,3.6821887,0.0,0.0,0.0,0.0,1,1,0
95,'1',1,1,1,28.972167,14.562532,0.0,0.0,0.0,0.0,1,1,0
96,'1',1,1,1,22.776533,4.2527767,0.0,0.0,0.0,0.0,1,1,0
99,'1',1,1,1,67.922389,26.60148,0.0,0.0,0.0,0.0,1,1,0
100,'1',1,1,1,24.350857,7.668564,0.0,0.0,0.0,0.0,1,1,0
101,'1',1,1,1,34.895953,17.679575,0.0,0.0,0.0,0.0,1,1,0
102,'1',1,1,1,21.025133,5.629382,0.0,0.0,0.0,0.0,1,1,0
103,'1',1,1,1,25.850137,7.3818608,0.0,0.0,0.0,0.0,1,1,0
104,'1',1,1,1,16.608611,3.8079466,0.0,0.0,0.0,0.0,1,1,0
105,'1',1,1,1,24.756962,7.0959373,0.0,0.0,0.0,0.0,1,1,0
107,'1',1,1,1,49.692279,0.8812266,0.0,0.0,0.0,0.0,1,1,0
109,'1',1,1,1,34.3161,9.3048717,0.0,0.0,0.0,0.0,1,1,0
110,'1',1,1,1,36.0901,5.499487,0.0,0.0,0.0,0.0,1,1,0
111,'1',1,1,1,60.397437,13.176724,0.0,0.0,0.0,0.0,1,1,0
112,'1',1,1,1,59.05107,34.958333,0.0,0.0,0.0,0.0,1,1,0
113,'1',1,1,1,36.180338,14.648252,0.0,0.0,0.0,0.0,1,1,0
114,'1',1,1,1,26.420973,8.031785,0.0,0.0,0.0,0.0,1,1,0
115,'1',1,1,1,60.533034,11.59023,0.0,0.0,0.0,0.0,1,1,0
116,'1',1,1,1,55.928422,11.662791,0.0,0.0,0.0,0.0,1,1,0
117,'1',1,1,1,57.961938,6.5186391,0.0,0.0,0.0,0.0,1,1,0
118,'1',1,1,1,54.287224,6.704999,0.0,0.0,0.0,0.0,1,1,0
120,'1',1,1,1,53.26289,14.484285,0.0,0.0,0.0,0.0,1,1,0
122,'1',1,1,1,40.220914,6.7228155,0.0,0.0,0.0,0.0,1,1,0
123,'1',1,1,1,43.134188,20.608893,0.0,0.0,0.0,0.0,1,1,0
124,'1',1,1,1,62.782179,5.4944837,0.0,0.0,0.0,0.0,1,1,0
125,'1',1,1,1,57.522315,21.578263,0.0,0.0,0.0,0.0,1,1,0
126,'1',1,1,1,27.095157,2.7399673,0.0,0.0,0.0,0.0,1,1,0
127,'1',1,1,1,18.337275,10.089923,0.0,0.0,0.0,0.0,1,1,0
128,'1',1,1,1,23.120417,1.5654852,0.0,0.0,0.0,0.0,1,1,0
129,'1',1,1,1,35.563411,10.637777,0.0,0.0,0.0,0.0,1,1,0
130,'1',1,1,1,19.623703,8.6855987,0.0,0.0,0.0,0.0,1,1,0
131,'1',1,1,1,23.256527,5.0800953,0.0,0.0,0.0,0.0,1,1,0
132,'1',1,1,1,36.327234,13.360609,0.0,0.0,0.0,0.0,1,1,0
133,'1',1,1,1,14.395631,6.5937625,0.0,0.0,0.0,0.0,1,1,0
134,'1',1,1,1,25.454531,2.8490183,0.0,0.0,0.0,0.0,1,1,0
137,'1',1,1,1,32.206054,6.1877709,0.0,0.0,0.0,0.0,1,1,0
138,'1',1,1,1,45.343279,13.469671,0.0,0.0,0.0,0.0,1,1,0
139,'1',1,1,1,45.974094,9.1217857,0.0,0.0,0.0,0.0,1,1,0
140,'1',1,1,1,50.060771,15.647098,0.0,0.0,0.0,0.0,1,1,0
141,'1',1,1,1,53.017962,26.269983,0.0,0.0,0.0,0.0,1,1,0
142,'1',1,1,1,15.032797,2.9626856,0.0,0.0,0.0,0.0,1,1,0
143,'1',1,1,1,32.861496,16.440244,0.0,0.0,0.0,0.0,1,1,0
144,'1',1,1,1,30.425416,7.1749335,0.0,0.0,0.0,0.0,1,1,0
145,'1',1,1,1,60.210256,22.892365,0.0,0.0,0.0,0.0,1,1,0
146,'1',1,1,1,32.774237,9.8369067,0.0,0.0,0.0,0.0,1,1,0
147,'1',1,1,1,44.957131,14.607648,0.0,0.0,0.0,0.0,1,1,0
148,'1',1,1,1,62.583721,30.128847,0.0,0.0,0.0,0.0,1,1,0
149,'1',1,1,1,79.180675,12.267114,0.0,0.0,0.0,0.0,1,1,0
150,'1',1,1,1,96.92837,30.139719,0.0,0.0,0.0,0.0,1,1,0
153,'1',1,1,1,129.59439,29.624294,0.0,0.0,0.0,0.0,1,1,0
154,'1',1,1,1,37.211588,7.4038889,0.0,0.0,0.0,0.0,1,1,0
155,'1',1,1,1,66.90142,11.047839,0.0,0.0,0.0,0.0,1,1,0
156,'1',1,1,1,57.168131,21.826194,0.0,0.0,0.0,0.0,1,1,0
157,'1',1,1,1,26.103288,17.903774,0.0,0.0,0.0,0.0,1,1,0
158,'1',1,1,1,58.360743,9.7819934,0.0,0.0,0.0,0.0,1,1,0
159,'1',1,1,1,47.33062,9.3110345,0.0,0.0,0.0,0.0,1,1,0
160,'1',1,1,1,26.456949,10.752542,0.0,0.0,0.0,0.0,1,1,0
161,'1',1,1,1,17.094861,3.40486,0.0,0.0,0.0,0.0,1,1,0
162,'1',1,1,1,17.482203,5.7907053,0.0,0.0,0.0,0.0,1,1,0
163,'1',1,1,1,24.668124,2.5964375,0.0,0.0,0.0,0.0,1,1,0
164,'1',1,1,1,24.122453,3.4339736,0.0,0.0,0.0,0.0,1,1,0
165,'1',1,1,1,66.948323,7.4583986,0.0,0.0,0.0,0.0,1,1,0
166,'1',1,1,1,52.400968,11.594573,0.0,0.0,0.0,0.0,1,1,0
167,'1',1,1,1,30.633037,7.5331568,0.0,0.0,0.0,0.0,1,1,0
168,'1',1,1,1,46.518215,15.130948,0.0,0.0,0.0,0.0,1,1,0
169,'1',1,1,1,26.02743,13.896114,0.0,0.0,0.0,0.0,1,1,0
170,'1',1,1,1,62.801255,15.065084,0.0,0.0,0.0,0.0,1,1,0
171,'1',1,1,1,79.407206,21.485805,0.0,0.0,0.0,0.0,1,1,0
172,'1',1,1,1,40.541868,12.673965,0.0,0.0,0.0,0.0,1,1,0
173,'1',1,1,1,18.761977,2.5263581,0.0,0.0,0.0,0.0,1,1,0
174,'1',1,1,1,87.491325,44.370079,0.0,0.0,0.0,0.0,1,1,0
175,'1',1,1,1,63.651626,2.6491176,0.0,0.0,0.0,0.0,1,1,0
176,'1',1,1,1,52.387747,32.373507,0.0,0.0,0.0,0.0,1,1,0
177,'1',1,1,1,103.40978,16.910085,0.0,0.0,0.0,0.0,1,1,0
178,'1',1,1,1,119.42414,27.861987,0.0,0.0,0.0,0.0,1,1,0
179,'1',1,1,1,44.021466,12.161766,0.0,0.0,0.0,0.0,1,1,0
180,'1',1,1,1,23.564514,3.5671103,0.0,0.0,0.0,0.0,1,1,0
181,'1',1,1,1,37.076618,6.5549031,0.0,0.0,0.0,0.0,1,1,0
182,'1',1,1,1,65.997382,8.4651315,0.0,0.0,0.0,0.0,1,1,0
183,'1',1,1,1,59.770931,12.487574,0.0,0.0,0.0,0.0,1,1,0
184,'1',1,1,1,48.346987,19.953601,0.0,0.0,0.0,0.0,1,1,0
185,'1',1,1,1,56.837084,2.0951709,0.0,0.0,0.0,0.0,1,1,0
186,'1',1,1,1,59.451822,13.97176,0.0,0.0,0.0,0.0,1,1,0
187,'1',1,1,1,124.9256,55.840445,0.0,0.0,0.0,0.0,1,1,0
188,'1',1,1,1,41.417946,11.504793,0.0,0.0,0.0,0.0,1,1,0
189,'1',1,1,1,22.32493,2.0872236,0.0,0.0,0.0,0.0,1,1,0
192,'1',1,1,1,85.002888,20.516974,0.0,0.0,0.0,0.0,1,1,0
193,'1',1,1,1,50.654234,15.239302,0.0,0.0,0.0,0.0,1,1,0
194,'1',1,1,1,48.374645,11.617327,0.0,0.0,0.0,0.0,1,1,0
195,'1',1,1,1,55.742019,10.151834,0.0,0.0,0.0,0.0,1,1,0
196,'1',1,1,1,45.87865,8.7313222,0.0,0.0,0.0,0.0,1,1,0
197,'1',1,1,1,28.903075,5.421903,0.0,0.0,0.0,0.0,1,1,0
198,'1',1,1,1,34.35679,13.002883,0.0,0.0,0.0,0.0,1,1,0
199,'1',1,1,1,37.963118,1.4266833,0.0,0.0,0.0,0.0,1,1,0
200,'1',1,1,1,45.056925,12.24024,0.0,0.0,0.0,0.0,1,1,0
201,'1',1,1,1,52.179703,7.4176652,0.0,0.0,0.0,0.0,1,1,0
202,'1',1,1,1,50.114432,4.9661749,0.0,0.0,0.0,0.0,1,1,0
203,'1',1,1,1,63.298173,34.636366,0.0,0.0,0.0,0.0,1,1,0
204,'1',1,1,1,34.453404,9.1835536,0.0,0.0,0.0,0.0,1,1,0
205,'1',1,1,1,37.623376,28.263871,0.0,0.0,0.0,0.0,1,1,0
206,'1',1,1,1,25.287769,8.6017875,0.0,0.0,0.0,0.0,1,1,0
207,'1',1,1,1,47.571901,9.1357802,0.0,0.0,0.0,0.0,1,1,0
208,'1',1,1,1,32.953602,6.326255,0.0,0.0,0.0,0.0,1,1,0
209,'1',1,1,1,89.706754,12.360266,0.0,0.0,0.0,0.0,1,1,0
210,'1',1,1,1,28.180039,9.4786876,0.0,0.0,0.0,0.0,1,1,0
211,'1',1,1,1,33.937823,6.4034411,0.0,0.0,0.0,0.0,1,1,0
212,'1',1,1,1,29.247739,6.4458666,0.0,0.0,0.0,0.0,1,1,0
213,'1',1,1,1,66.800823,14.376759,0.0,0.0,0.0,0.0,1,1,0
214,'1',1,1,1,42.051135,19.723071,0.0,0.0,0.0,0.0,1,1,0
215,'1',1,1,1,32.63773,9.4695866,0.0,0.0,0.0,0.0,1,1,0
216,'1',1,1,1,41.303462,11.504428,0.0,0.0,0.0,0.0,1,1,0
217,'1',1,1,1,36.903395,13.813591,0.0,0.0,0.0,0.0,1,1,0
218,'1',1,1,1,41.848901,20.165487,0.0,0.0,0.0,0.0,1,1,0
219,'1',1,1,1,20.356296,5.0211398,0.0,0.0,0.0,0.0,1,1,0
220,'1',1,1,1,27.268087,9.3105956,0.0,0.0,0.0,0.0,1,1,0
221,'1',1,1,1,39.872306,7.1170408,0.0,0.0,0.0,0.0,1,1,0
222,'1',1,1,1,48.573152,12.811778,0.0,0.0,0.0,0.0,1,1,0
...
0 / END OF LOAD DATA BEGIN FIXED SHUNT DATA
59,'1',1,0.0,30.242
116,'1',1,0.0,27.226
132,'1',1,0.0,26.017
135,'1',1,0.0,42.791
138,'1',1,0.0,49.221
156,'1',1,0.0,52.222
176,'1',1,0.0,95.518
214,'1',1,0.0,100.39
218,'1',1,0.0,24.179
226,'1',1,0.0,15.602
235,'1',1,0.0,20.424
240,'1',1,0.0,29.599
245,'1',1,0.0,16.257
248,'1',1,0.0,37.204
259,'1',1,0.0,19.758
0 / END OF FIXED SHUNT DATA BEGIN GENERATOR DATA
272,'1',22.026001,18.01,18.01,-2.298,1.0377115,0,46.9,0.0,1.0,0.0,0.0,1.0,1,1.0,46.9,22.026,1,1.0,0,1.0,0,1.0,0,1.0,0,1.0
275,'1',888.2,95.116128,326.858,-72.832,1.018,0,888.2,0.0,1.0,0.0,0.0,1.0,1,1.0,888.2,146.11,1,1.0,0,1.0,0,1.0,0,1.0,0,1.0
276,'1',465.34767,25.934031,326.858,-72.832,1.0105533,0,888.2,0.0,1.0,0.0,0.0,1.0,0,1.0,888.2,398.234,1,1.0,0,1.0,0,1.0,0,1.0,0,1.0
277,'1',8.3820003,-1.225,9.6,-1.225,1.0603218,0,25.0,0.0,1.0,0.0,0.0,1.0,1,1.0,25.0,8.382,1,1.0,0,1.0,0,1.0,0,1.0,0,1.0
277,'2',2.7160003,-1.225,9.6,-1.225,1.0603218,0,25.0,0.0,1.0,0.0,0.0,1.0,1,1.0,25.0,2.716,1,1.0,0,1.0,0,1.0,0,1.0,0,1.0
277,'3',9.6610003,-1.225,9.6,-1.225,1.0603218,0,25.0,0.0,1.0,0.0,0.0,1.0,1,1.0,25.0,9.661,1,1.0,0,1.0,0,1.0,0,1.0,0,1.0
277,'4',8.6510003,-1.225,9.6,-1.225,1.0603218,0,25.0,0.0,1.0,0.0,0.0,1.0,1,1.0,25.0,8.651,1,1.0,0,1.0,0,1.0,0,1.0,0,1.0
280,'1',158.7,41.424022,80.778,-17.616,1.0495,0,158.7,0.0,1.0,0.0,0.0,1.0,1,1.0,158.7,78.648,1,1.0,0,1.0,0,1.0,0,1.0,0,1.0
281,'1',140.68,13.585769,80.778,-17.616,1.047,0,158.7,0.0,1.0,0.0,0.0,1.0,1,1.0,158.7,68.611,1,1.0,0,1.0,0,1.0,0,1.0,0,1.0
284,'1',118.58,5.5388719,110.623,-24.124,1.0405,0,217.33,0.0,1.0,0.0,0.0,1.0,1,1.0,217.333,52.737,1,1.0,0,1.0,0,1.0,0,1.0,0,1.0
285,'1',152.57,5.8904554,110.623,-24.124,1.0405,0,217.33,0.0,1.0,0.0,0.0,1.0,1,1.0,217.333,55.415,1,1.0,0,1.0,0,1.0,0,1.0,0,1.0
286,'1',98.86,4.571103,110.623,-24.124,1.0405,0,217.33,0.0,1.0,0.0,0.0,1.0,1,1.0,217.333,69.243,1,1.0,0,1.0,0,1.0,0,1.0,0,1.0
287,'1',125.69,4.9486279,110.623,-24.124,1.0405,0,217.33,0.0,1.0,0.0,0.0,1.0,1,1.0,217.333,64.598,1,1.0,0,1.0,0,1.0,0,1.0,0,1.0
288,'1',52.424,3.9475637,110.623,-24.124,1.0405,0,217.33,0.0,1.0,0.0,0.0,1.0,1,1.0,217.333,52.424,1,1.0,0,1.0,0,1.0,0,1.0,0,1.0
289,'1',141.39,6.1123802,110.623,-24.124,1.0405,0,217.33,0.0,1.0,0.0,0.0,1.0,1,1.0,217.333,27.479,1,1.0,0,1.0,0,1.0,0,1.0,0,1.0
292,'1',0.1253476,0.10197717,0.192,-0.025,1.0641771,0,0.5,0.0,1.0,0.0,0.0,1.0,0,1.0,0.5,0.06,1,1.0,0,1.0,0,1.0,0,1.0,0,1.0
292,'2',0.12600027,0.192,0.192,-0.025,1.0641771,0,0.5,0.0,1.0,0.0,0.0,1.0,1,1.0,0.5,0.126,1,1.0,0,1.0,0,1.0,0,1.0,0,1.0
294,'1',13.419938,-1.998,9.162,-1.998,1.0451582,0,18.0,0.0,1.0,0.0,0.0,1.0,0,1.0,18.0,5.517,1,1.0,0,1.0,0,1.0,0,1.0,0,1.0
297,'1',106.09213,-19.81,90.84,-19.81,1.0706629,0,178.47,0.0,1.0,0.0,0.0,1.0,0,1.0,178.467,82.766,1,1.0,0,1.0,0,1.0,0,1.0,0,1.0
298,'1',103.30193,-15.150903,90.84,-19.81,1.0706629,0,178.47,0.0,1.0,0.0,0.0,1.0,0,1.0,178.467,86.66,1,1.0,0,1.0,0,1.0,0,1.0,0,1.0
299,'1',178.467,-19.81,90.84,-19.81,1.0667754,0,178.47,0.0,1.0,0.0,0.0,1.0,1,1.0,178.467,63.99,1,1.0,0,1.0,0,1.0,0,1.0,0,1.0
300,'1',108.80715,-13.920232,90.84,-19.81,1.0706629,0,178.47,0.0,1.0,0.0,0.0,1.0,0,1.0,178.467,63.655,1,1.0,0,1.0,0,1.0,0,1.0,0,1.0
301,'1',90.135241,-19.81,90.84,-19.81,1.0706629,0,178.47,0.0,1.0,0.0,0.0,1.0,0,1.0,178.467,54.225,1,1.0,0,1.0,0,1.0,0,1.0,0,1.0
302,'1',109.7,-17.940705,90.84,-19.81,1.063,0,178.47,0.0,1.0,0.0,0.0,1.0,1,1.0,178.467,63.864,1,1.0,0,1.0,0,1.0,0,1.0,0,1.0
303,'1',40.36209,-3.308,25.92,-3.308,1.0601212,0,67.5,0.0,1.0,0.0,0.0,1.0,0,1.0,67.5,16.712,1,1.0,0,1.0,0,1.0,0,1.0,0,1.0
303,'2',41.028129,-3.308,25.92,-3.308,1.0601212,0,67.5,0.0,1.0,0.0,0.0,1.0,0,1.0,67.5,13.758,1,1.0,0,1.0,0,1.0,0,1.0,0,1.0
306,'1',4.040326,-0.854,3.262,-0.854,1.0596491,0,7.0,0.0,1.0,0.0,0.0,1.0,0,1.0,7.0,1.745,1,1.0,0,1.0,0,1.0,0,1.0,0,1.0
306,'2',0.78200009,-0.854,3.262,-0.854,1.0596491,0,7.0,0.0,1.0,0.0,0.0,1.0,1,1.0,7.0,0.782,1,1.0,0,1.0,0,1.0,0,1.0,0,1.0
307,'1',18.009478,-0.24039834,12.941,-1.651,1.04,0,33.7,0.0,1.0,0.0,0.0,1.0,0,1.0,33.7,11.636,1,1.0,0,1.0,0,1.0,0,1.0,0,1.0
307,'2',14.719,7.0558024,12.941,-1.651,1.04,0,33.7,0.0,1.0,0.0,0.0,1.0,1,1.0,33.7,14.719,1,1.0,0,1.0,0,1.0,0,1.0,0,1.0
307,'3',23.801065,-1.3595131,12.941,-1.651,1.04,0,33.7,0.0,1.0,0.0,0.0,1.0,0,1.0,33.7,6.952,1,1.0,0,1.0,0,1.0,0,1.0,0,1.0
311,'1',1164.667,16.480606,428.597,-95.503,1.0045,0,1164.67,0.0,1.0,0.0,0.0,1.0,1,1.0,1164.667,186.084,1,1.0,0,1.0,0,1.0,0,1.0,0,1.0
312,'1',535.35886,-95.503,428.597,-95.503,1.0048517,0,1164.67,0.0,1.0,0.0,0.0,1.0,0,1.0,1164.667,454.387,1,1.0,0,1.0,0,1.0,0,1.0,0,1.0
313,'1',1164.667,41.064982,428.597,-95.503,1.0045,0,1164.67,0.0,1.0,0.0,0.0,1.0,1,1.0,1164.667,448.244,1,1.0,0,1.0,0,1.0,0,1.0,0,1.0
316,'1',142.367,9.2847765,169.302,-36.92,1.0495,0,332.62,0.0,1.0,0.0,0.0,1.0,1,1.0,332.617,142.367,1,1.0,0,1.0,0,1.0,0,1.0,0,1.0
317,'1',51.451587,12.015239,169.302,-36.92,1.0462377,0,332.62,0.0,1.0,0.0,0.0,1.0,0,1.0,332.617,38.676,1,1.0,0,1.0,0,1.0,0,1.0,0,1.0
318,'1',36.952,12.620699,169.302,-36.92,1.0495,0,332.62,0.0,1.0,0.0,0.0,1.0,1,1.0,332.617,36.952,1,1.0,0,1.0,0,1.0,0,1.0,0,1.0
319,'1',85.73,16.225442,169.302,-36.92,1.0495,0,332.62,0.0,1.0,0.0,0.0,1.0,1,1.0,332.617,85.73,1,1.0,0,1.0,0,1.0,0,1.0,0,1.0
320,'1',170.99,12.237029,169.302,-36.92,1.0495,0,332.62,0.0,1.0,0.0,0.0,1.0,1,1.0,332.617,130.581,1,1.0,0,1.0,0,1.0,0,1.0,0,1.0
321,'1',134.27,12.602641,169.302,-36.92,1.0495,0,332.62,0.0,1.0,0.0,0.0,1.0,1,1.0,332.617,84.68,1,1.0,0,1.0,0,1.0,0,1.0,0,1.0
324,'1',120.0,23.379982,61.08,-13.32,1.054,0,120.0,0.0,1.0,0.0,0.0,1.0,1,1.0,120.0,31.702,1,1.0,0,1.0,0,1.0,0,1.0,0,1.0
325,'1',66.197447,13.349762,61.08,-13.32,1.0453906,0,120.0,0.0,1.0,0.0,0.0,1.0,0,1.0,120.0,52.66,1,1.0,0,1.0,0,1.0,0,1.0,0,1.0
326,'1',120.0,18.790051,61.08,-13.32,1.054,0,120.0,0.0,1.0,0.0,0.0,1.0,1,1.0,120.0,57.831,1,1.0,0,1.0,0,1.0,0,1.0,0,1.0
327,'1',120.0,19.953174,61.08,-13.32,1.054,0,120.0,0.0,1.0,0.0,0.0,1.0,1,1.0,120.0,55.972,1,1.0,0,1.0,0,1.0,0,1.0,0,1.0
328,'1',120.0,24.381494,61.08,-13.32,1.054,0,120.0,0.0,1.0,0.0,0.0,1.0,1,1.0,120.0,48.448,1,1.0,0,1.0,0,1.0,0,1.0,0,1.0
329,'1',120.0,22.34775,61.08,-13.32,1.054,0,120.0,0.0,1.0,0.0,0.0,1.0,1,1.0,120.0,20.655,1,1.0,0,1.0,0,1.0,0,1.0,0,1.0
330,'1',0.25900053,-0.122,0.466,-0.122,1.047515,0,1.0,0.0,1.0,0.0,0.0,1.0,1,1.0,1.0,0.259,1,1.0,0,1.0,0,1.0,0,1.0,0,1.0
330,'2',0.14300053,-0.122,0.466,-0.122,1.047515,0,1.0,0.0,1.0,0.0,0.0,1.0,1,1.0,1.0,0.143,1,1.0,0,1.0,0,1.0,0,1.0,0,1.0
330,'3',0.34800053,-0.122,0.466,-0.122,1.047515,0,1.0,0.0,1.0,0.0,0.0,1.0,1,1.0,1.0,0.348,1,1.0,0,1.0,0,1.0,0,1.0,0,1.0
330,'4',0.40900053,-0.122,0.466,-0.122,1.047515,0,1.0,0.0,1.0,0.0,0.0,1.0,1,1.0,1.0,0.409,1,1.0,0,1.0,0,1.0,0,1.0,0,1.0
334,'1',15.846001,-8.418,32.154,-8.418,1.0493962,0,69.0,0.0,1.0,0.0,0.0,1.0,1,1.0,69.0,15.846,1,1.0,0,1.0,0,1.0,0,1.0,0,1.0
335,'1',19.92662,-8.418,32.154,-8.418,1.0569292,0,69.0,0.0,1.0,0.0,0.0,1.0,0,1.0,69.0,12.549,1,1.0,0,1.0,0,1.0,0,1.0,0,1.0
338,'1',137.65,45.295367,119.539,-26.068,1.0585,0,234.85,0.0,1.0,0.0,0.0,1.0,1,1.0,234.85,113.344,1,1.0,0,1.0,0,1.0,0,1.0,0,1.0
339,'1',106.15615,28.738135,119.539,-26.068,1.045549,0,234.85,0.0,1.0,0.0,0.0,1.0,0,1.0,234.85,96.41,1,1.0,0,1.0,0,1.0,0,1.0,0,1.0
340,'1',148.51158,37.129747,119.539,-26.068,1.045549,0,234.85,0.0,1.0,0.0,0.0,1.0,0,1.0,234.85,83.983,1,1.0,0,1.0,0,1.0,0,1.0,0,1.0
341,'1',126.62325,26.213607,119.539,-26.068,1.045549,0,234.85,0.0,1.0,0.0,0.0,1.0,0,1.0,234.85,93.839,1,1.0,0,1.0,0,1.0,0,1.0,0,1.0
343,'1',67.190174,2.729406,83.569,-21.879,1.0455325,0,179.33,0.0,1.0,0.0,0.0,1.0,0,1.0,179.333,41.662,1,1.0,0,1.0,0,1.0,0,1.0,0,1.0
344,'1',38.561,12.46206,83.569,-21.879,1.054,0,179.33,0.0,1.0,0.0,0.0,1.0,1,1.0,179.333,38.561,1,1.0,0,1.0,0,1.0,0,1.0,0,1.0
345,'1',101.04261,2.9745962,83.569,-21.879,1.0455325,0,179.33,0.0,1.0,0.0,0.0,1.0,0,1.0,179.333,80.146,1,1.0,0,1.0,0,1.0,0,1.0,0,1.0
346,'1',48.5,-5.3839997,24.687,-5.384,1.0565057,0,48.5,0.0,1.0,0.0,0.0,1.0,1,1.0,48.5,17.591,1,1.0,0,1.0,0,1.0,0,1.0,0,1.0
346,'2',48.5,-5.3839997,24.687,-5.384,1.0565057,0,48.5,0.0,1.0,0.0,0.0,1.0,1,1.0,48.5,22.675,1,1.0,0,1.0,0,1.0,0,1.0,0,1.0
347,'1',45.161298,1.4086495,28.8,-3.675,1.04,0,75.0,0.0,1.0,0.0,0.0,1.0,0,1.0,75.0,36.562,1,1.0,0,1.0,0,1.0,0,1.0,0,1.0
347,'2',33.345001,20.094833,28.8,-3.675,1.04,0,75.0,0.0,1.0,0.0,0.0,1.0,1,1.0,75.0,33.345,1,1.0,0,1.0,0,1.0,0,1.0,0,1.0
347,'3',29.918001,20.094833,28.8,-3.675,1.04,0,75.0,0.0,1.0,0.0,0.0,1.0,1,1.0,75.0,29.918,1,1.0,0,1.0,0,1.0,0,1.0,0,1.0
350,'1',6.6760004,-1.411,11.059,-1.411,1.0581495,0,28.8,0.0,1.0,0.0,0.0,1.0,1,1.0,28.8,6.676,1,1.0,0,1.0,0,1.0,0,1.0,0,1.0
351,'1',14.185,-1.411,11.059,-1.411,1.0553005,0,28.8,0.0,1.0,0.0,0.0,1.0,1,1.0,28.8,14.185,1,1.0,0,1.0,0,1.0,0,1.0,0,1.0
351,'2',11.192,-1.411,11.059,-1.411,1.0553005,0,28.8,0.0,1.0,0.0,0.0,1.0,1,1.0,28.8,11.192,1,1.0,0,1.0,0,1.0,0,1.0,0,1.0
351,'3',10.034,-1.411,11.059,-1.411,1.0553005,0,28.8,0.0,1.0,0.0,0.0,1.0,1,1.0,28.8,10.034,1,1.0,0,1.0,0,1.0,0,1.0,0,1.0
354,'1',110.0,-12.21,55.99,-12.21,1.0419008,0,110.0,0.0,1.0,0.0,0.0,1.0,1,1.0,110.0,33.177,1,1.0,0,1.0,0,1.0,0,1.0,0,1.0
356,'1',17.972773,-1.486,11.648,-1.486,1.0487349,0,30.33,0.0,1.0,0.0,0.0,1.0,0,1.0,30.333,13.679,1,1.0,0,1.0,0,1.0,0,1.0,0,1.0
356,'2',5.6250004,-1.4859997,11.648,-1.486,1.0487349,0,30.33,0.0,1.0,0.0,0.0,1.0,1,1.0,30.333,5.625,1,1.0,0,1.0,0,1.0,0,1.0,0,1.0
356,'3',13.481827,-1.486,11.648,-1.486,1.0487349,0,30.33,0.0,1.0,0.0,0.0,1.0,0,1.0,30.333,12.388,1,1.0,0,1.0,0,1.0,0,1.0,0,1.0
357,'1',6.1740003,-2.5859991,9.879,-2.586,1.0681753,0,21.2,0.0,1.0,0.0,0.0,1.0,1,1.0,21.2,6.174,1,1.0,0,1.0,0,1.0,0,1.0,0,1.0
358,'1',20.275001,-2.5799998,20.218,-2.58,1.0413694,0,52.65,0.0,1.0,0.0,0.0,1.0,1,1.0,52.65,20.275,1,1.0,0,1.0,0,1.0,0,1.0,0,1.0
358,'2',25.147001,-2.5799998,20.218,-2.58,1.0413694,0,52.65,0.0,1.0,0.0,0.0,1.0,1,1.0,52.65,25.147,1,1.0,0,1.0,0,1.0,0,1.0,0,1.0
358,'3',19.396001,-2.5799998,20.218,-2.58,1.0413694,0,52.65,0.0,1.0,0.0,0.0,1.0,1,1.0,52.65,19.396,1,1.0,0,1.0,0,1.0,0,1.0,0,1.0
358,'4',23.624506,-2.58,20.218,-2.58,1.0413694,0,52.65,0.0,1.0,0.0,0.0,1.0,0,1.0,52.65,15.946,1,1.0,0,1.0,0,1.0,0,1.0,0,1.0
359,'1',27.6,-3.0639996,14.048,-3.064,1.0480832,0,27.6,0.0,1.0,0.0,0.0,1.0,1,1.0,27.6,11.587,1,1.0,0,1.0,0,1.0,0,1.0,0,1.0
359,'2',27.6,-3.0639996,14.048,-3.064,1.0480832,0,27.6,0.0,1.0,0.0,0.0,1.0,1,1.0,27.6,13.293,1,1.0,0,1.0,0,1.0,0,1.0,0,1.0
362,'1',154.71737,211.88094,328.763,-86.071,1.0410659,0,705.5,0.0,1.0,0.0,0.0,1.0,0,1.0,705.5,78.707,1,1.0,0,1.0,0,1.0,0,1.0,0,1.0
363,'1',101.10456,-77.826413,328.763,-86.071,1.0410659,0,705.5,0.0,1.0,0.0,0.0,1.0,0,1.0,705.5,78.191,1,1.0,0,1.0,0,1.0,0,1.0,0,1.0
364,'1',374.30943,-4.2423344,328.763,-86.071,1.0410659,0,705.5,0.0,1.0,0.0,0.0,1.0,0,1.0,705.5,259.966,1,1.0,0,1.0,0,1.0,0,1.0,0,1.0
365,'1',286.113,-6.6045151,328.763,-86.071,1.04,0,705.5,0.0,1.0,0.0,0.0,1.0,1,1.0,705.5,286.113,1,1.0,0,1.0,0,1.0,0,1.0,0,1.0
367,'1',2.2290003,-1.005,7.872,-1.005,1.0433635,0,20.5,0.0,1.0,0.0,0.0,1.0,1,1.0,20.5,2.229,1,1.0,0,1.0,0,1.0,0,1.0,0,1.0
368,'1',9.0510003,-1.005,7.872,-1.005,1.0420067,0,20.5,0.0,1.0,0.0,0.0,1.0,1,1.0,20.5,9.051,1,1.0,0,1.0,0,1.0,0,1.0,0,1.0
368,'2',6.3200003,-1.005,7.872,-1.005,1.0420067,0,20.5,0.0,1.0,0.0,0.0,1.0,1,1.0,20.5,6.32,1,1.0,0,1.0,0,1.0,0,1.0,0,1.0
369,'1',11.905542,7.872,7.872,-1.005,0.98433736,0,20.5,0.0,1.0,0.0,0.0,1.0,0,1.0,20.5,9.565,1,1.0,0,1.0,0,1.0,0,1.0,0,1.0
371,'1',99.149392,-34.672,132.437,-34.672,1.0506483,0,284.2,0.0,1.0,0.0,0.0,1.0,0,1.0,284.2,73.732,1,1.0,0,1.0,0,1.0,0,1.0,0,1.0
372,'1',133.898,-31.159187,132.437,-34.672,1.04,0,284.2,0.0,1.0,0.0,0.0,1.0,1,1.0,284.2,133.898,1,1.0,0,1.0,0,1.0,0,1.0,0,1.0
375,'1',25.0,-0.39267387,12.725,-2.775,1.04,0,25.0,0.0,1.0,0.0,0.0,1.0,1,1.0,25.0,6.759,1,1.0,0,1.0,0,1.0,0,1.0,0,1.0
378,'1',93.585593,-23.371228,117.973,-25.727,1.0106153,0,231.77,0.0,1.0,0.0,0.0,1.0,0,1.0,231.775,65.628,1,1.0,0,1.0,0,1.0,0,1.0,0,1.0
379,'1',66.661,-13.643532,117.973,-25.727,1.0045,0,231.77,0.0,1.0,0.0,0.0,1.0,1,1.0,231.775,66.661,1,1.0,0,1.0,0,1.0,0,1.0,0,1.0
380,'1',111.33,-15.402014,117.973,-25.727,1.0045,0,231.77,0.0,1.0,0.0,0.0,1.0,1,1.0,231.775,31.037,1,1.0,0,1.0,0,1.0,0,1.0,0,1.0
381,'1',113.618,-18.91052,117.973,-25.727,1.0045,0,231.77,0.0,1.0,0.0,0.0,1.0,1,1.0,231.775,113.618,1,1.0,0,1.0,0,1.0,0,1.0,0,1.0
382,'1',3.5540001,-0.363,2.842,-0.363,1.0442751,0,7.4,0.0,1.0,0.0,0.0,1.0,1,1.0,7.4,3.554,1,1.0,0,1.0,0,1.0,0,1.0,0,1.0
382,'2',2.9250001,-0.363,2.842,-0.363,1.0442751,0,7.4,0.0,1.0,0.0,0.0,1.0,1,1.0,7.4,2.925,1,1.0,0,1.0,0,1.0,0,1.0,0,1.0
382,'3',2.3089934,-0.363,2.842,-0.363,1.0442751,0,7.4,0.0,1.0,0.0,0.0,1.0,0,1.0,7.4,0.878,1,1.0,0,1.0,0,1.0,0,1.0,0,1.0
382,'4',2.1930001,-0.363,2.842,-0.363,1.0442751,0,7.4,0.0,1.0,0.0,0.0,1.0,1,1.0,7.4,2.193,1,1.0,0,1.0,0,1.0,0,1.0,0,1.0
384,'1',5.7170882,-0.735,5.76,-0.735,1.0429157,0,15.0,0.0,1.0,0.0,0.0,1.0,0,1.0,15.0,5.179,1,1.0,0,1.0,0,1.0,0,1.0,0,1.0
384,'2',7.3350002,-0.735,5.76,-0.735,1.0429157,0,15.0,0.0,1.0,0.0,0.0,1.0,1,1.0,15.0,7.335,1,1.0,0,1.0,0,1.0,0,1.0,0,1.0
384,'3',3.1460002,-0.735,5.76,-0.735,1.0429157,0,15.0,0.0,1.0,0.0,0.0,1.0,1,1.0,15.0,3.146,1,1.0,0,1.0,0,1.0,0,1.0,0,1.0
384,'4',2.3780002,-0.735,5.76,-0.735,1.0429157,0,15.0,0.0,1.0,0.0,0.0,1.0,1,1.0,15.0,2.378,1,1.0,0,1.0,0,1.0,0,1.0,0,1.0
386,'1',27.475001,-3.299,25.856,-3.299,1.0500883,0,67.33,0.0,1.0,0.0,0.0,1.0,1,1.0,67.333,27.475,1,1.0,0,1.0,0,1.0,0,1.0,0,1.0
386,'2',30.139001,-3.299,25.856,-3.299,1.0500883,0,67.33,0.0,1.0,0.0,0.0,1.0,1,1.0,67.333,30.139,1,1.0,0,1.0,0,1.0,0,1.0,0,1.0
386,'3',11.032001,-3.299,25.856,-3.299,1.0500883,0,67.33,0.0,1.0,0.0,0.0,1.0,1,1.0,67.333,11.032,1,1.0,0,1.0,0,1.0,0,1.0,0,1.0
386,'4',27.690468,-3.299,25.856,-3.299,1.0500883,0,67.33,0.0,1.0,0.0,0.0,1.0,0,1.0,67.333,25.208,1,1.0,0,1.0,0,1.0,0,1.0,0,1.0
386,'5',12.595001,-3.299,25.856,-3.299,1.0500883,0,67.33,0.0,1.0,0.0,0.0,1.0,1,1.0,67.333,12.595,1,1.0,0,1.0,0,1.0,0,1.0,0,1.0
386,'6',7.4680009,-3.299,25.856,-3.299,1.0500883,0,67.33,0.0,1.0,0.0,0.0,1.0,1,1.0,67.333,7.468,1,1.0,0,1.0,0,1.0,0,1.0,0,1.0
391,'1',141.5,72.023,72.023,-15.707,1.0017995,0,141.5,0.0,1.0,0.0,0.0,1.0,1,1.0,141.5,37.246,1,1.0,0,1.0,0,1.0,0,1.0,0,1.0
392,'1',141.5,72.023,72.023,-15.707,1.004829,0,141.5,0.0,1.0,0.0,0.0,1.0,1,1.0,141.5,45.823,1,1.0,0,1.0,0,1.0,0,1.0,0,1.0
393,'1',141.5,72.023,72.023,-15.707,1.001325,0,141.5,0.0,1.0,0.0,0.0,1.0,1,1.0,141.5,59.806,1,1.0,0,1.0,0,1.0,0,1.0,0,1.0
394,'1',72.420681,72.023,72.023,-15.707,0.97579431,0,141.5,0.0,1.0,0.0,0.0,1.0,0,1.0,141.5,46.001,1,1.0,0,1.0,0,1.0,0,1.0,0,1.0
395,'1',8.6600004,11.328,11.328,-1.445,1.0394166,0,29.5,0.0,1.0,0.0,0.0,1.0,1,1.0,29.5,8.66,1,1.0,0,1.0,0,1.0,0,1.0,0,1.0
395,'2',14.002,11.328,11.328,-1.445,1.0394166,0,29.5,0.0,1.0,0.0,0.0,1.0,1,1.0,29.5,14.002,1,1.0,0,1.0,0,1.0,0,1.0,0,1.0
396,'1',16.057196,-1.445,11.328,-1.445,1.0645195,0,29.5,0.0,1.0,0.0,0.0,1.0,0,1.0,29.5,14.604,1,1.0,0,1.0,0,1.0,0,1.0,0,1.0
396,'2',7.5120004,-1.4449996,11.328,-1.445,1.0645195,0,29.5,0.0,1.0,0.0,0.0,1.0,1,1.0,29.5,7.512,1,1.0,0,1.0,0,1.0,0,1.0,0,1.0
396,'3',6.1810004,-1.4449996,11.328,-1.445,1.0645195,0,29.5,0.0,1.0,0.0,0.0,1.0,1,1.0,29.5,6.181,1,1.0,0,1.0,0,1.0,0,1.0,0,1.0
396,'4',17.524868,-1.445,11.328,-1.445,1.0645195,0,29.5,0.0,1.0,0.0,0.0,1.0,0,1.0,29.5,13.848,1,1.0,0,1.0,0,1.0,0,1.0,0,1.0
398,'1',79.333,5.0215294,40.381,-8.806,1.037,0,79.33,0.0,1.0,0.0,0.0,1.0,1,1.0,79.333,28.412,1,1.0,0,1.0,0,1.0,0,1.0,0,1.0
398,'2',50.720073,3.3702942,40.381,-8.806,1.037,0,79.33,0.0,1.0,0.0,0.0,1.0,0,1.0,79.333,26.903,1,1.0,0,1.0,0,1.0,0,1.0,0,1.0
398,'3',79.333,5.0215294,40.381,-8.806,1.037,0,79.33,0.0,1.0,0.0,0.0,1.0,1,1.0,79.333,17.147,1,1.0,0,1.0,0,1.0,0,1.0,0,1.0
398,'4',79.333,5.0215294,40.381,-8.806,1.037,0,79.33,0.0,1.0,0.0,0.0,1.0,1,1.0,79.333,18.276,1,1.0,0,1.0,0,1.0,0,1.0,0,1.0
398,'5',39.09773,0.74152077,40.381,-8.806,1.037,0,79.33,0.0,1.0,0.0,0.0,1.0,0,1.0,79.333,31.607,1,1.0,0,1.0,0,1.0,0,1.0,0,1.0
398,'6',43.627827,1.0747564,40.381,-8.806,1.037,0,79.33,0.0,1.0,0.0,0.0,1.0,0,1.0,79.333,27.502,1,1.0,0,1.0,0,1.0,0,1.0,0,1.0
399,'1',0.45597128,-0.074,0.576,-0.074,1.0514388,0,1.5,0.0,1.0,0.0,0.0,1.0,0,1.0,1.5,0.226,1,1.0,0,1.0,0,1.0,0,1.0,0,1.0
399,'2',1.1840456,-0.074,0.576,-0.074,1.0514388,0,1.5,0.0,1.0,0.0,0.0,1.0,0,1.0,1.5,0.589,1,1.0,0,1.0,0,1.0,0,1.0,0,1.0
401,'1',61.25,-6.799,31.176,-6.799,1.0499571,0,61.25,0.0,1.0,0.0,0.0,1.0,1,1.0,61.25,22.338,1,1.0,0,1.0,0,1.0,0,1.0,0,1.0
402,'1',61.25,-6.799,31.176,-6.799,1.0460107,0,61.25,0.0,1.0,0.0,0.0,1.0,1,1.0,61.25,23.864,1,1.0,0,1.0,0,1.0,0,1.0,0,1.0
404,'1',25.26561,-2.083,16.32,-2.083,1.0561151,0,42.5,0.0,1.0,0.0,0.0,1.0,0,1.0,42.5,19.52,1,1.0,0,1.0,0,1.0,0,1.0,0,1.0
404,'2',15.533001,-2.0829999,16.32,-2.083,1.0561151,0,42.5,0.0,1.0,0.0,0.0,1.0,1,1.0,42.5,15.533,1,1.0,0,1.0,0,1.0,0,1.0,0,1.0
404,'3',17.47541,-2.083,16.32,-2.083,1.0561151,0,42.5,0.0,1.0,0.0,0.0,1.0,0,1.0,42.5,13.013,1,1.0,0,1.0,0,1.0,0,1.0,0,1.0
404,'4',20.112528,-2.083,16.32,-2.083,1.0561151,0,42.5,0.0,1.0,0.0,0.0,1.0,0,1.0,42.5,12.661,1,1.0,0,1.0,0,1.0,0,1.0,0,1.0
407,'1',109.0,-6.9995035,55.481,-12.099,1.054,0,109.0,0.0,1.0,0.0,0.0,1.0,1,1.0,109.0,18.987,1,1.0,0,1.0,0,1.0,0,1.0,0,1.0
408,'1',56.531357,-8.7175282,55.481,-12.099,1.0560941,0,109.0,0.0,1.0,0.0,0.0,1.0,0,1.0,109.0,14.731,1,1.0,0,1.0,0,1.0,0,1.0,0,1.0
409,'1',109.0,-3.2339731,55.481,-12.099,1.054,0,109.0,0.0,1.0,0.0,0.0,1.0,1,1.0,109.0,32.57,1,1.0,0,1.0,0,1.0,0,1.0,0,1.0
410,'1',109.0,-3.3276349,55.481,-12.099,1.054,0,109.0,0.0,1.0,0.0,0.0,1.0,1,1.0,109.0,22.306,1,1.0,0,1.0,0,1.0,0,1.0,0,1.0
411,'1',109.0,-1.7519577,55.481,-12.099,1.054,0,109.0,0.0,1.0,0.0,0.0,1.0,1,1.0,109.0,14.143,1,1.0,0,1.0,0,1.0,0,1.0,0,1.0
412,'1',104.17136,-2.9146936,55.481,-12.099,1.054,0,109.0,0.0,1.0,0.0,0.0,1.0,1,1.0,109.0,23.483,1,1.0,0,1.0,0,1.0,0,1.0,0,1.0
413,'1',11.654001,0.53424585,20.698,-2.641,1.04,0,53.9,0.0,1.0,0.0,0.0,1.0,1,1.0,53.9,11.654,1,1.0,0,1.0,0,1.0,0,1.0,0,1.0
416,'1',67.963,13.474227,165.029,-43.205,1.009,0,354.14,0.0,1.0,0.0,0.0,1.0,1,1.0,354.14,67.963,1,1.0,0,1.0,0,1.0,0,1.0,0,1.0
417,'1',131.174,-43.205,165.029,-43.205,1.045256,0,354.14,0.0,1.0,0.0,0.0,1.0,1,1.0,354.14,131.174,1,1.0,0,1.0,0,1.0,0,1.0,0,1.0
418,'1',149.645,-43.205,165.029,-43.205,1.0409647,0,354.14,0.0,1.0,0.0,0.0,1.0,1,1.0,354.14,149.645,1,1.0,0,1.0,0,1.0,0,1.0,0,1.0
419,'1',108.91924,9.076557,165.029,-43.205,1.0061316,0,354.14,0.0,1.0,0.0,0.0,1.0,0,1.0,354.14,56.643,1,1.0,0,1.0,0,1.0,0,1.0,0,1.0
420,'1',67.901,9.378025,165.029,-43.205,1.009,0,354.14,0.0,1.0,0.0,0.0,1.0,1,1.0,354.14,67.901,1,1.0,0,1.0,0,1.0,0,1.0,0,1.0
421,'1',51.5,-5.717,26.213,-5.717,1.0449459,0,51.5,0.0,1.0,0.0,0.0,1.0,1,1.0,51.5,24.828,1,1.0,0,1.0,0,1.0,0,1.0,0,1.0
421,'2',51.5,-5.717,26.213,-5.717,1.0449459,0,51.5,0.0,1.0,0.0,0.0,1.0,1,1.0,51.5,23.937,1,1.0,0,1.0,0,1.0,0,1.0,0,1.0
424,'1',112.797,-0.96712113,125.82,-32.94,1.0585,0,270.0,0.0,1.0,0.0,0.0,1.0,1,1.0,270.0,112.797,1,1.0,0,1.0,0,1.0,0,1.0,0,1.0
425,'1',87.627,-1.2507908,125.82,-32.94,1.0585,0,270.0,0.0,1.0,0.0,0.0,1.0,1,1.0,270.0,87.627,1,1.0,0,1.0,0,1.0,0,1.0,0,1.0
426,'1',102.816,-19.159645,125.82,-32.94,1.04,0,270.0,0.0,1.0,0.0,0.0,1.0,1,1.0,270.0,102.816,1,1.0,0,1.0,0,1.0,0,1.0,0,1.0
427,'1',116.49502,-5.7356927,125.82,-32.94,1.0588091,0,270.0,0.0,1.0,0.0,0.0,1.0,0,1.0,270.0,99.844,1,1.0,0,1.0,0,1.0,0,1.0,0,1.0
428,'1',67.953,-1.6401624,125.82,-32.94,1.0585,0,270.0,0.0,1.0,0.0,0.0,1.0,1,1.0,270.0,67.953,1,1.0,0,1.0,0,1.0,0,1.0,0,1.0
431,'1',54.19,40.941678,114.525,-24.975,1.0135,0,225.0,0.0,1.0,0.0,0.0,1.0,1,1.0,225.0,54.19,1,1.0,0,1.0,0,1.0,0,1.0,0,1.0
432,'1',115.20286,18.408463,114.525,-24.975,0.99895088,0,225.0,0.0,1.0,0.0,0.0,1.0,0,1.0,225.0,108.754,1,1.0,0,1.0,0,1.0,0,1.0,0,1.0
433,'1',102.71103,4.4265968,114.525,-24.975,1.004897,0,225.0,0.0,1.0,0.0,0.0,1.0,0,1.0,225.0,75.67,1,1.0,0,1.0,0,1.0,0,1.0,0,1.0
434,'1',89.064,55.622651,114.525,-24.975,1.0135,0,225.0,0.0,1.0,0.0,0.0,1.0,1,1.0,225.0,89.064,1,1.0,0,1.0,0,1.0,0,1.0,0,1.0
437,'1',133.26,104.27523,114.83,-25.042,1.0135,0,225.6,0.0,1.0,0.0,0.0,1.0,1,1.0,225.6,110.17,1,1.0,0,1.0,0,1.0,0,1.0,0,1.0
438,'1',81.193597,95.212234,114.83,-25.042,0.98116873,0,225.6,0.0,1.0,0.0,0.0,1.0,0,1.0,225.6,58.277,1,1.0,0,1.0,0,1.0,0,1.0,0,1.0
439,'1',120.90587,106.82949,114.83,-25.042,0.97552983,0,225.6,0.0,1.0,0.0,0.0,1.0,0,1.0,225.6,90.164,1,1.0,0,1.0,0,1.0,0,1.0,0,1.0
440,'1',70.56,114.83,114.83,-25.042,1.0131011,0,225.6,0.0,1.0,0.0,0.0,1.0,1,1.0,225.6,31.8,1,1.0,0,1.0,0,1.0,0,1.0,0,1.0
441,'1',11.334001,-2.092,16.397,-2.092,1.0434857,0,42.7,0.0,1.0,0.0,0.0,1.0,1,1.0,42.7,11.334,1,1.0,0,1.0,0,1.0,0,1.0,0,1.0
441,'2',17.876001,-2.092,16.397,-2.092,1.0434857,0,42.7,0.0,1.0,0.0,0.0,1.0,1,1.0,42.7,17.876,1,1.0,0,1.0,0,1.0,0,1.0,0,1.0
441,'3',15.695001,-2.092,16.397,-2.092,1.0434857,0,42.7,0.0,1.0,0.0,0.0,1.0,1,1.0,42.7,15.695,1,1.0,0,1.0,0,1.0,0,1.0,0,1.0
443,'1',3.0,-0.019833314,1.527,-0.333,1.04,0,3.0,0.0,1.0,0.0,0.0,1.0,1,1.0,3.0,1.43,1,1.0,0,1.0,0,1.0,0,1.0,0,1.0
443,'2',3.0,-0.019833314,1.527,-0.333,1.04,0,3.0,0.0,1.0,0.0,0.0,1.0,1,1.0,3.0,0.466,1,1.0,0,1.0,0,1.0,0,1.0,0,1.0
444,'1',3.0,1.1287068,1.527,-0.333,1.0475,0,3.0,0.0,1.0,0.0,0.0,1.0,1,1.0,3.0,1.141,1,1.0,0,1.0,0,1.0,0,1.0,0,1.0
444,'2',1.3692451,0.58163823,1.527,-0.333,1.0475,0,3.0,0.0,1.0,0.0,0.0,1.0,0,1.0,3.0,1.295,1,1.0,0,1.0,0,1.0,0,1.0,0,1.0
448,'1',136.44895,-34.567,132.036,-34.567,1.048709,0,283.34,0.0,1.0,0.0,0.0,1.0,0,1.0,283.34,129.582,1,1.0,0,1.0,0,1.0,0,1.0,0,1.0
449,'1',137.75,-27.945427,132.036,-34.567,1.04,0,283.34,0.0,1.0,0.0,0.0,1.0,1,1.0,283.34,137.75,1,1.0,0,1.0,0,1.0,0,1.0,0,1.0
450,'1',113.319,132.036,132.036,-34.567,1.0176527,0,283.34,0.0,1.0,0.0,0.0,1.0,1,1.0,283.34,113.319,1,1.0,0,1.0,0,1.0,0,1.0,0,1.0
451,'1',99.941207,101.518,132.036,-34.567,0.98124816,0,283.34,0.0,1.0,0.0,0.0,1.0,0,1.0,283.34,84.208,1,1.0,0,1.0,0,1.0,0,1.0,0,1.0
452,'1',66.152,132.036,132.036,-34.567,1.0162147,0,283.34,0.0,1.0,0.0,0.0,1.0,1,1.0,283.34,66.152,1,1.0,0,1.0,0,1.0,0,1.0,0,1.0
453,'1',15.106345,-1.191,9.331,-1.191,1.0418793,0,24.3,0.0,1.0,0.0,0.0,1.0,0,1.0,24.3,11.536,1,1.0,0,1.0,0,1.0,0,1.0,0,1.0
453,'2',10.913,-1.191,9.331,-1.191,1.0418793,0,24.3,0.0,1.0,0.0,0.0,1.0,1,1.0,24.3,10.913,1,1.0,0,1.0,0,1.0,0,1.0,0,1.0
453,'3',9.205,-1.191,9.331,-1.191,1.0418793,0,24.3,0.0,1.0,0.0,0.0,1.0,0,1.0,24.3,9.205,1,1.0,0,1.0,0,1.0,0,1.0,0,1.0
456,'1',187.0,67.089757,95.183,-20.757,1.018,0,187.0,0.0,1.0,0.0,0.0,1.0,1,1.0,187.0,76.093,1,1.0,0,1.0,0,1.0,0,1.0,0,1.0
457,'1',101.81,31.317673,95.183,-20.757,1.013,0,187.0,0.0,1.0,0.0,0.0,1.0,1,1.0,187.0,45.01,1,1.0,0,1.0,0,1.0,0,1.0,0,1.0
458,'1',155.68,60.088012,95.183,-20.757,1.018,0,187.0,0.0,1.0,0.0,0.0,1.0,1,1.0,187.0,30.393,1,1.0,0,1.0,0,1.0,0,1.0,0,1.0
459,'1',142.65,60.425616,95.183,-20.757,1.018,0,187.0,0.0,1.0,0.0,0.0,1.0,1,1.0,187.0,76.131,1,1.0,0,1.0,0,1.0,0,1.0,0,1.0
462,'1',109.757,-17.106064,139.602,-30.444,1.0045,0,274.27,0.0,1.0,0.0,0.0,1.0,1,1.0,274.267,109.757,1,1.0,0,1.0,0,1.0,0,1.0,0,1.0
463,'1',156.73,-18.471452,139.602,-30.444,1.0045,0,274.27,0.0,1.0,0.0,0.0,1.0,1,1.0,274.267,78.369,1,1.0,0,1.0,0,1.0,0,1.0,0,1.0
464,'1',72.19959,-14.521325,139.602,-30.444,1.0096825,0,274.27,0.0,1.0,0.0,0.0,1.0,0,1.0,274.267,58.535,1,1.0,0,1.0,0,1.0,0,1.0,0,1.0
466,'1',10.571,6.5392219,9.696,-1.237,1.07,0,25.25,0.0,1.0,0.0,0.0,1.0,1,1.0,25.25,10.571,1,1.0,0,1.0,0,1.0,0,1.0,0,1.0
466,'2',5.7460003,6.5392219,9.696,-1.237,1.07,0,25.25,0.0,1.0,0.0,0.0,1.0,1,1.0,25.25,5.746,1,1.0,0,1.0,0,1.0,0,1.0,0,1.0
470,'1',289.96887,-32.817774,262.125,-68.625,1.0447914,0,562.5,0.0,1.0,0.0,0.0,1.0,0,1.0,562.5,183.095,1,1.0,0,1.0,0,1.0,0,1.0,0,1.0
471,'1',116.10619,-34.948464,262.125,-68.625,1.0447914,0,562.5,0.0,1.0,0.0,0.0,1.0,0,1.0,562.5,90.746,1,1.0,0,1.0,0,1.0,0,1.0,0,1.0
472,'1',24.5,-2.719,12.471,-2.719,1.0487779,0,24.5,0.0,1.0,0.0,0.0,1.0,1,1.0,24.5,7.711,1,1.0,0,1.0,0,1.0,0,1.0,0,1.0
472,'2',24.5,-2.719,12.471,-2.719,1.0487779,0,24.5,0.0,1.0,0.0,0.0,1.0,1,1.0,24.5,10.439,1,1.0,0,1.0,0,1.0,0,1.0,0,1.0
475,'1',10.287273,-1.431,11.213,-1.431,1.0679085,0,29.2,0.0,1.0,0.0,0.0,1.0,0,1.0,29.2,9.221,1,1.0,0,1.0,0,1.0,0,1.0,0,1.0
475,'2',4.2240004,-1.431,11.213,-1.431,1.0679085,0,29.2,0.0,1.0,0.0,0.0,1.0,1,1.0,29.2,4.224,1,1.0,0,1.0,0,1.0,0,1.0,0,1.0
476,'1',15.040352,-1.431,11.213,-1.431,1.0693734,0,29.2,0.0,1.0,0.0,0.0,1.0,0,1.0,29.2,13.934,1,1.0,0,1.0,0,1.0,0,1.0,0,1.0
478,'1',27.486276,-5.472,25.094,-5.472,1.0613626,0,49.3,0.0,1.0,0.0,0.0,1.0,0,1.0,49.3,19.901,1,1.0,0,1.0,0,1.0,0,1.0,0,1.0
478,'2',49.3,-5.4719996,25.094,-5.472,1.0613626,0,49.3,0.0,1.0,0.0,0.0,1.0,1,1.0,49.3,19.103,1,1.0,0,1.0,0,1.0,0,1.0,0,1.0
481,'1',154.153,19.755961,187.593,-49.112,1.04,0,402.56,0.0,1.0,0.0,0.0,1.0,1,1.0,402.56,154.153,1,1.0,0,1.0,0,1.0,0,1.0,0,1.0
482,'1',86.185,121.36211,187.593,-49.112,1.0675,0,402.56,0.0,1.0,0.0,0.0,1.0,1,1.0,402.56,86.185,1,1.0,0,1.0,0,1.0,0,1.0,0,1.0
483,'1',189.085,21.911479,187.593,-49.112,1.04,0,402.56,0.0,1.0,0.0,0.0,1.0,1,1.0,402.56,189.085,1,1.0,0,1.0,0,1.0,0,1.0,0,1.0
484,'1',114.01962,-4.5823477,187.593,-49.112,1.035535,0,402.56,0.0,1.0,0.0,0.0,1.0,0,1.0,402.56,113.904,1,1.0,0,1.0,0,1.0,0,1.0,0,1.0
485,'1',84.314452,74.316588,187.593,-49.112,1.035535,0,402.56,0.0,1.0,0.0,0.0,1.0,0,1.0,402.56,56.892,1,1.0,0,1.0,0,1.0,0,1.0,0,1.0
486,'1',3.6400004,-1.4129999,11.072,-1.413,1.0523418,0,28.83,0.0,1.0,0.0,0.0,1.0,1,1.0,28.833,3.64,1,1.0,0,1.0,0,1.0,0,1.0,0,1.0
486,'2',12.556,-1.4129999,11.072,-1.413,1.0523418,0,28.83,0.0,1.0,0.0,0.0,1.0,1,1.0,28.833,12.556,1,1.0,0,1.0,0,1.0,0,1.0,0,1.0
486,'3',13.66,-1.4129999,11.072,-1.413,1.0523418,0,28.83,0.0,1.0,0.0,0.0,1.0,1,1.0,28.833,13.66,1,1.0,0,1.0,0,1.0,0,1.0,0,1.0
...
0 / END OF GENERATOR DATA BEGIN BRANCH DATA
2,212,'1',0.0154525,0.0792528,0.0268017,239.94,239.94,239.94,0.0,0.0,0.0,0.0,1,1,0.0,1,1.0,0,1.0,0,1.0,0,1.0
3,53,'1',0.00358046,0.0258456,0.0131628,260.03,260.03,260.03,0.0,0.0,0.0,0.0,1,1,0.0,1,1.0,0,1.0,0,1.0,0,1.0
3,53,'2',0.00358046,0.0258456,0.0131628,260.03,260.03,260.03,0.0,0.0,0.0,0.0,1,1,0.0,1,1.0,0,1.0,0,1.0,0,1.0
3,213,'1',0.00319977,0.0219502,0.0125158,256.59,256.59,256.59,0.0,0.0,0.0,0.0,1,1,0.0,1,1.0,0,1.0,0,1.0,0,1.0
4,5,'1',0.00696197,0.0360534,0.0111497,218.77,218.77,218.77,0.0,0.0,0.0,0.0,1,1,0.0,1,1.0,0,1.0,0,1.0,0,1.0
4,331,'1',0.00775811,0.0380507,0.0134745,227.23,227.23,227.23,0.0,0.0,0.0,0.0,1,1,0.0,1,1.0,0,1.0,0,1.0,0,1.0
5,331,'1',0.00487853,0.02675,0.00815727,198.63,198.63,198.63,0.0,0.0,0.0,0.0,1,1,0.0,1,1.0,0,1.0,0,1.0,0,1.0
5,351,'1',0.0124676,0.0654224,0.0163807,269.59,269.59,269.59,0.0,0.0,0.0,0.0,1,1,0.0,1,1.0,0,1.0,0,1.0,0,1.0
6,331,'1',0.0051151,0.0236629,0.0391647,336.94,336.94,336.94,0.0,0.0,0.0,0.0,1,1,0.0,1,1.0,0,1.0,0,1.0,0,1.0
8,461,'1',0.00268087,0.0132507,0.00588479,232.73,232.73,232.73,0.0,0.0,0.0,0.0,1,1,0.0,1,1.0,0,1.0,0,1.0,0,1.0
10,11,'1',0.0133436,0.0919039,0.0115271,212.51,212.51,212.51,0.0,0.0,0.0,0.0,1,1,0.0,1,1.0,0,1.0,0,1.0,0,1.0
10,406,'1',0.00631471,0.0440302,0.0307124,216.36,216.36,216.36,0.0,0.0,0.0,0.0,1,1,0.0,1,1.0,0,1.0,0,1.0,0,1.0
11,58,'1',0.0286556,0.128792,0.0377904,204.21,204.21,204.21,0.0,0.0,0.0,0.0,1,1,0.0,1,1.0,0,1.0,0,1.0,0,1.0
12,10,'1',0.00363287,0.0200568,0.0589258,206.37,206.37,206.37,0.0,0.0,0.0,0.0,1,1,0.0,1,1.0,0,1.0,0,1.0,0,1.0
12,406,'1',0.00340925,0.0206369,0.0061444,233.32,233.32,233.32,0.0,0.0,0.0,0.0,1,1,0.0,1,1.0,0,1.0,0,1.0,0,1.0
13,17,'1',0.0100597,0.0575367,0.0312509,227.86,227.86,227.86,0.0,0.0,0.0,0.0,1,1,0.0,1,1.0,0,1.0,0,1.0,0,1.0
14,156,'1',0.00832308,0.0444584,0.0151703,264.27,264.27,264.27,0.0,0.0,0.0,0.0,1,1,0.0,1,1.0,0,1.0,0,1.0,0,1.0
15,55,'1',0.0113961,0.0625895,0.0161825,218.52,218.52,218.52,0.0,0.0,0.0,0.0,1,1,0.0,1,1.0,0,1.0,0,1.0,0,1.0
16,162,'1',0.012951,0.0665246,0.0176437,224.35,224.35,224.35,0.0,0.0,0.0,0.0,1,1,0.0,1,1.0,0,1.0,0,1.0,0,1.0
16,304,'1',0.00759675,0.0410247,0.0264718,236.54,236.54,236.54,0.0,0.0,0.0,0.0,1,1,0.0,1,1.0,0,1.0,0,1.0,0,1.0
18,19,'1',0.0106007,0.0397642,0.0085879,245.27,245.27,245.27,0.0,0.0,0.0,0.0,1,1,0.0,1,1.0,0,1.0,0,1.0,0,1.0
18,81,'1',0.00978753,0.0448943,0.023169,223.47,223.47,223.47,0.0,0.0,0.0,0.0,1,1,0.0,1,1.0,0,1.0,0,1.0,0,1.0
18,310,'1',0.004373,0.0260086,0.0242791,277.5,277.5,277.5,0.0,0.0,0.0,0.0,1,1,0.0,1,1.0,0,1.0,0,1.0,0,1.0
18,310,'2',0.004373,0.0260086,0.0242791,277.5,277.5,277.5,0.0,0.0,0.0,0.0,1,1,0.0,1,1.0,0,1.0,0,1.0,0,1.0
19,141,'1',0.00579211,0.0290206,0.0189553,251.0,251.0,251.0,0.0,0.0,0.0,0.0,1,1,0.0,1,1.0,0,1.0,0,1.0,0,1.0
19,436,'1',0.00397383,0.0271653,0.0337435,212.6,212.6,212.6,0.0,0.0,0.0,0.0,1,1,0.0,1,1.0,0,1.0,0,1.0,0,1.0
20,22,'1',0.000207968,0.00111847,0.0,99999.0,99999.0,99999.0,0.0,0.0,0.0,0.0,1,1,0.0,1,1.0,0,1.0,0,1.0,0,1.0
21,23,'1',0.00250938,0.0172465,0.0313608,248.08,248.08,248.08,0.0,0.0,0.0,0.0,1,1,0.0,1,1.0,0,1.0,0,1.0,0,1.0
22,295,'1',0.0015308,0.016473,0.364525,1075.02,1075.02,1075.02,0.0,0.0,0.0,0.0,1,1,0.0,1,1.0,0,1.0,0,1.0,0,1.0
22,405,'1',0.002026,0.028747,1.00897,1001.46,1001.46,1001.46,0.0,0.0,0.0,0.0,1,1,0.0,1,1.0,0,1.0,0,1.0,0,1.0
23,179,'1',0.008727,0.054891,0.034891,236.33,236.33,236.33,0.0,0.0,0.0,0.0,1,1,0.0,1,1.0,0,1.0,0,1.0,0,1.0
24,4,'1',0.00353554,0.0227525,0.0272812,241.53,241.53,241.53,0.0,0.0,0.0,0.0,1,1,0.0,1,1.0,0,1.0,0,1.0,0,1.0
24,56,'1',0.00957472,0.0499942,0.0131242,244.03,244.03,244.03,0.0,0.0,0.0,0.0,1,1,0.0,1,1.0,0,1.0,0,1.0,0,1.0
25,27,'1',0.000257042,0.00119754,0.0,99999.0,99999.0,99999.0,0.0,0.0,0.0,0.0,1,1,0.0,1,1.0,0,1.0,0,1.0,0,1.0
25,314,'1',0.00158469,0.0214403,0.275456,1151.39,1151.39,1151.39,0.0,0.0,0.0,0.0,1,1,0.0,1,1.0,0,1.0,0,1.0,0,1.0
28,29,'1',0.0121765,0.0608641,0.0130017,207.91,207.91,207.91,0.0,0.0,0.0,0.0,1,1,0.0,1,1.0,0,1.0,0,1.0,0,1.0
28,30,'1',0.00432531,0.0200998,0.00802657,230.9,230.9,230.9,0.0,0.0,0.0,0.0,1,1,0.0,1,1.0,0,1.0,0,1.0,0,1.0
29,356,'1',0.00799791,0.0387782,0.0352203,188.9,188.9,188.9,0.0,0.0,0.0,0.0,1,1,0.0,1,1.0,0,1.0,0,1.0,0,1.0
30,26,'1',0.00666488,0.0320152,0.0220243,304.68,304.68,304.68,0.0,0.0,0.0,0.0,1,1,0.0,1,1.0,0,1.0,0,1.0,0,1.0
31,228,'1',0.008946,0.057044,0.025829,280.0,280.0,280.0,0.0,0.0,0.0,0.0,1,1,0.0,1,1.0,0,1.0,0,1.0,0,1.0
31,296,'1',0.00518286,0.0326049,0.0584572,358.79,358.79,358.79,0.0,0.0,0.0,0.0,1,1,0.0,1,1.0,0,1.0,0,1.0,0,1.0
31,415,'1',0.0113363,0.0554702,0.0432148,231.46,231.46,231.46,0.0,0.0,0.0,0.0,1,1,0.0,1,1.0,0,1.0,0,1.0,0,1.0
33,32,'1',0.00681448,0.0338755,0.0131701,196.59,196.59,196.59,0.0,0.0,0.0,0.0,1,1,0.0,1,1.0,0,1.0,0,1.0,0,1.0
34,33,'1',0.00341126,0.0247052,0.0295283,270.99,270.99,270.99,0.0,0.0,0.0,0.0,1,1,0.0,1,1.0,0,1.0,0,1.0,0,1.0
34,33,'2',0.00341126,0.0247052,0.0295283,270.99,270.99,270.99,0.0,0.0,0.0,0.0,1,1,0.0,1,1.0,0,1.0,0,1.0,0,1.0
35,40,'1',0.00293506,0.0185201,0.00990083,228.32,228.32,228.32,0.0,0.0,0.0,0.0,1,1,0.0,1,1.0,0,1.0,0,1.0,0,1.0
35,42,'1',0.00449505,0.0326042,0.0129473,276.08,276.08,276.08,0.0,0.0,0.0,0.0,1,1,0.0,1,1.0,0,1.0,0,1.0,0,1.0
36,2,'1',0.00289863,0.0167658,0.0148842,188.66,188.66,188.66,0.0,0.0,0.0,0.0,1,1,0.0,1,1.0,0,1.0,0,1.0,0,1.0
36,33,'1',0.00284038,0.0206656,0.011617,213.45,213.45,213.45,0.0,0.0,0.0,0.0,1,1,0.0,1,1.0,0,1.0,0,1.0,0,1.0
37,35,'1',0.00780774,0.0366615,0.0156035,218.76,218.76,218.76,0.0,0.0,0.0,0.0,1,1,0.0,1,1.0,0,1.0,0,1.0,0,1.0
37,44,'1',0.00830767,0.0554788,0.0311844,200.99,200.99,200.99,0.0,0.0,0.0,0.0,1,1,0.0,1,1.0,0,1.0,0,1.0,0,1.0
38,39,'1',0.00316109,0.0157664,0.019275,252.83,252.83,252.83,0.0,0.0,0.0,0.0,1,1,0.0,1,1.0,0,1.0,0,1.0,0,1.0
38,49,'1',0.0106902,0.0689767,0.0297214,204.2,204.2,204.2,0.0,0.0,0.0,0.0,1,1,0.0,1,1.0,0,1.0,0,1.0,0,1.0
39,35,'1',0.00384653,0.022595,0.0115165,259.81,259.81,259.81,0.0,0.0,0.0,0.0,1,1,0.0,1,1.0,0,1.0,0,1.0,0,1.0
39,35,'2',0.00384653,0.022595,0.0115165,259.81,259.81,259.81,0.0,0.0,0.0,0.0,0,1,0.0,1,1.0,0,1.0,0,1.0,0,1.0
39,361,'1',0.00410223,0.0323982,0.0223687,296.76,296.76,296.76,0.0,0.0,0.0,0.0,1,1,0.0,1,1.0,0,1.0,0,1.0,0,1.0
39,361,'2',0.00410223,0.0323982,0.0223687,296.76,296.76,296.76,0.0,0.0,0.0,0.0,1,1,0.0,1,1.0,0,1.0,0,1.0,0,1.0
39,361,'3',0.00410223,0.0323982,0.0223687,296.76,296.76,296.76,0.0,0.0,0.0,0.0,1,1,0.0,1,1.0,0,1.0,0,1.0,0,1.0
41,43,'1',0.000233031,0.00104503,0.0,99999.0,99999.0,99999.0,0.0,0.0,0.0,0.0,1,1,0.0,1,1.0,0,1.0,0,1.0,0,1.0
42,40,'1',0.00435644,0.0248836,0.0126137,308.21,308.21,308.21,0.0,0.0,0.0,0.0,1,1,0.0,1,1.0,0,1.0,0,1.0,0,1.0
43,54,'1',0.00111725,0.0133249,0.292213,1210.87,1210.87,1210.87,0.0,0.0,0.0,0.0,1,1,0.0,1,1.0,0,1.0,0,1.0,0,1.0
43,498,'1',0.00161178,0.0198636,0.286039,1210.03,1210.03,1210.03,0.0,0.0,0.0,0.0,1,1,0.0,1,1.0,0,1.0,0,1.0,0,1.0
44,42,'1',0.00483059,0.022229,0.00975406,240.21,240.21,240.21,0.0,0.0,0.0,0.0,1,1,0.0,1,1.0,0,1.0,0,1.0,0,1.0
45,36,'1',0.00469767,0.0323288,0.00954514,196.67,196.67,196.67,0.0,0.0,0.0,0.0,1,1,0.0,1,1.0,0,1.0,0,1.0,0,1.0
45,37,'1',0.00411194,0.0226471,0.0067485,223.09,223.09,223.09,0.0,0.0,0.0,0.0,1,1,0.0,1,1.0,0,1.0,0,1.0,0,1.0
46,45,'1',0.0023403,0.0128024,0.0123531,401.85,401.85,401.85,0.0,0.0,0.0,0.0,1,1,0.0,1,1.0,0,1.0,0,1.0,0,1.0
46,50,'1',0.00351582,0.0151322,0.0225659,213.18,213.18,213.18,0.0,0.0,0.0,0.0,1,1,0.0,1,1.0,0,1.0,0,1.0,0,1.0
46,51,'1',0.00390017,0.0201794,0.0263679,290.75,290.75,290.75,0.0,0.0,0.0,0.0,1,1,0.0,1,1.0,0,1.0,0,1.0,0,1.0
46,51,'2',0.00390017,0.0201794,0.0263679,290.75,290.75,290.75,0.0,0.0,0.0,0.0,1,1,0.0,1,1.0,0,1.0,0,1.0,0,1.0
46,214,'1',0.00565635,0.0285577,0.0458282,324.34,324.34,324.34,0.0,0.0,0.0,0.0,1,1,0.0,1,1.0,0,1.0,0,1.0,0,1.0
47,40,'1',0.00542345,0.0298445,0.00973297,209.65,209.65,209.65,0.0,0.0,0.0,0.0,1,1,0.0,1,1.0,0,1.0,0,1.0,0,1.0
48,50,'1',0.00493315,0.0197057,0.0266381,231.0,231.0,231.0,0.0,0.0,0.0,0.0,1,1,0.0,1,1.0,0,1.0,0,1.0,0,1.0
48,480,'1',0.0141266,0.063385,0.013796,270.01,270.01,270.01,0.0,0.0,0.0,0.0,1,1,0.0,1,1.0,0,1.0,0,1.0,0,1.0
49,47,'1',0.00274605,0.0168842,0.011861,210.29,210.29,210.29,0.0,0.0,0.0,0.0,1,1,0.0,1,1.0,0,1.0,0,1.0,0,1.0
50,49,'1',0.00420333,0.0189576,0.00848235,263.28,263.28,263.28,0.0,0.0,0.0,0.0,1,1,0.0,1,1.0,0,1.0,0,1.0,0,1.0
50,51,'1',0.00306979,0.0198041,0.0129611,299.51,299.51,299.51,0.0,0.0,0.0,0.0,1,1,0.0,1,1.0,0,1.0,0,1.0,0,1.0
51,48,'1',0.00285314,0.0207706,0.0111933,206.03,206.03,206.03,0.0,0.0,0.0,0.0,1,1,0.0,1,1.0,0,1.0,0,1.0,0,1.0
51,70,'1',0.00927047,0.0420854,0.0202396,302.02,302.02,302.02,0.0,0.0,0.0,0.0,1,1,0.0,1,1.0,0,1.0,0,1.0,0,1.0
51,357,'1',0.00606199,0.0375019,0.0462067,281.97,281.97,281.97,0.0,0.0,0.0,0.0,1,1,0.0,1,1.0,0,1.0,0,1.0,0,1.0
51,357,'2',0.00606199,0.0375019,0.0462067,281.97,281.97,281.97,0.0,0.0,0.0,0.0,1,1,0.0,1,1.0,0,1.0,0,1.0,0,1.0
51,357,'3',0.00606199,0.0375019,0.0462067,281.97,281.97,281.97,0.0,0.0,0.0,0.0,1,1,0.0,1,1.0,0,1.0,0,1.0,0,1.0
52,54,'1',0.000209023,0.00101092,0.0,99999.0,99999.0,99999.0,0.0,0.0,0.0,0.0,1,1,0.0,1,1.0,0,1.0,0,1.0,0,1.0
53,32,'1',0.00540244,0.030335,0.00829098,226.77,226.77,226.77,0.0,0.0,0.0,0.0,1,1,0.0,1,1.0,0,1.0,0,1.0,0,1.0
53,36,'1',0.00511899,0.0318872,0.0170703,230.21,230.21,230.21,0.0,0.0,0.0,0.0,1,1,0.0,1,1.0,0,1.0,0,1.0,0,1.0
53,45,'1',0.00448796,0.0251172,0.0179586,273.78,273.78,273.78,0.0,0.0,0.0,0.0,1,1,0.0,1,1.0,0,1.0,0,1.0,0,1.0
53,45,'2',0.00448796,0.0251172,0.0179586,273.78,273.78,273.78,0.0,0.0,0.0,0.0,1,1,0.0,1,1.0,0,1.0,0,1.0,0,1.0
55,72,'1',0.00255071,0.0145816,0.0529998,202.42,202.42,202.42,0.0,0.0,0.0,0.0,1,1,0.0,1,1.0,0,1.0,0,1.0,0,1.0
...